* for m2.sch

.MODEL mn NMOS(LEVEL=2 VTO=.60 KP=2.4E-5 GAMMA=1.419 PHI=0.695
 + LAMBDA=.018 PB=0.7 CGDO=13.0E-10 CGSO=13.0E-10 CGBO=2.0E-10
 + CJ=3.5E-4 CJSW=8.8E-10 TOX=10.1E-8 XJ=2.5E-6 LD=2.0E-6 RSH=8.25
 + TPG=0 NFS=1E12 JS=10E-7 UO=774 UCRIT=1.1E5 UEXP=.5 )
*
.MODEL mp PMOS(LEVEL=2 VTO=-0.65 KP=10.5E-6 GAMMA=.613 PHI=0.598
 + LAMBDA=.03 PB=0.7 CGDO=18.0E-10 CGSO=18.0E-10 CGBO=2.0E-10
 + CJ=2.7E-4 CJSW=6.8E-10 TOX=10.1E-8 XJ=2.5E-6 LD=2E-6 RSH=100
 + TPG=0 NFS=1E12 JS=10E-7 UO=548 UCRIT=6E4 UEXP=0.4  )


