Version 4
SHEET 1 924 680
WIRE 608 16 608 0
WIRE 544 64 448 64
WIRE 128 112 128 80
WIRE 96 128 -48 128
WIRE 448 144 448 64
WIRE 448 144 160 144
WIRE -448 160 -496 160
WIRE -416 160 -448 160
WIRE -224 160 -224 96
WIRE -224 160 -352 160
WIRE 96 160 -224 160
WIRE 608 160 608 112
WIRE 704 160 608 160
WIRE 752 160 704 160
WIRE 848 160 816 160
WIRE 864 160 848 160
WIRE -224 192 -224 160
WIRE 608 208 608 160
WIRE 864 208 864 160
WIRE -496 224 -496 160
WIRE 128 224 128 176
WIRE 448 256 448 144
WIRE 544 256 448 256
WIRE 208 304 176 304
WIRE 320 304 272 304
WIRE -48 336 -48 128
WIRE 48 336 -48 336
WIRE 176 336 176 304
WIRE 176 336 48 336
WIRE 320 336 320 304
WIRE 704 336 704 160
WIRE 704 336 320 336
WIRE -496 352 -496 304
WIRE -224 352 -224 272
WIRE 48 384 48 336
WIRE 176 384 176 336
WIRE 208 384 176 384
WIRE 320 384 320 336
WIRE 320 384 288 384
WIRE 608 384 608 304
WIRE 864 384 864 288
WIRE 48 496 48 448
WIRE 48 592 48 576
FLAG -368 64 0
FLAG -368 -16 VCC
FLAG -224 16 VCC
FLAG 128 80 VCC
FLAG 608 0 VCC
FLAG 128 224 0
FLAG 608 384 0
FLAG -224 352 0
FLAG -496 352 0
FLAG 48 592 0
FLAG 864 384 0
FLAG -448 160 vin
FLAG 848 160 vout
DATAFLAG 640 160 ""
DATAFLAG 416 144 ""
DATAFLAG -192 160 ""
DATAFLAG -496 160 ""
DATAFLAG 16 336 ""
DATAFLAG 864 192 ""
SYMBOL res -240 176 R0
SYMATTR InstName R1
SYMATTR Value 39k
SYMBOL res -240 0 R0
SYMATTR InstName R2
SYMATTR Value 39k
SYMBOL res 32 480 R0
SYMATTR InstName R3
SYMATTR Value 1k
SYMBOL res 192 400 R270
WINDOW 0 32 56 VTop 2
WINDOW 3 0 56 VBottom 2
SYMATTR InstName R4
SYMATTR Value 18k
SYMBOL res 848 192 R0
SYMATTR InstName R5
SYMATTR Value 8.2
SYMBOL cap -352 144 R90
WINDOW 0 0 32 VBottom 2
WINDOW 3 32 32 VTop 2
SYMATTR InstName C1
SYMATTR Value 2.2”
SYMBOL cap 64 448 R180
WINDOW 0 24 56 Left 2
WINDOW 3 24 8 Left 2
SYMATTR InstName C2
SYMATTR Value 22”
SYMBOL cap 208 320 R270
WINDOW 0 32 32 VTop 2
WINDOW 3 0 32 VBottom 2
SYMATTR InstName C3
SYMATTR Value 470p
SYMBOL cap 752 176 R270
WINDOW 0 32 32 VTop 2
WINDOW 3 0 32 VBottom 2
SYMATTR InstName C4
SYMATTR Value 470”
SYMBOL voltage -496 208 R0
WINDOW 39 0 0 Left 0
WINDOW 3 24 72 Left 2
SYMATTR Value ""
SYMATTR Value2 AC 1 0
SYMATTR InstName V1
SYMBOL voltage -368 -32 R0
WINDOW 123 0 0 Left 0
WINDOW 39 0 0 Left 0
SYMATTR InstName V2
SYMATTR Value 18
SYMBOL OpAmps\\opamp2 128 80 R0
SYMATTR InstName U1
SYMATTR Value LM741/NS
SYMBOL AutoGenerated\\tip120 544 16 R0
SYMATTR InstName U2
SYMBOL AutoGenerated\\tip125 544 304 M180
SYMATTR InstName U3
TEXT -136 -104 Left 2 !.lib C:\\Users\\Mariano\\Desktop\\lab2\\741.lib
TEXT -528 616 Left 2 ;.tran 0 0.01 0 .001
TEXT -424 496 Left 2 !;tf v(vout) V1
TEXT -80 0 Left 2 !.op
