Version 4
SHEET 1 1044 680
WIRE 192 0 -64 0
WIRE -64 64 -64 0
WIRE 416 80 304 80
WIRE 192 112 192 0
WIRE 416 128 416 80
WIRE 160 144 16 144
WIRE 16 160 16 144
WIRE 304 160 304 80
WIRE 304 160 240 160
WIRE -64 176 -64 144
WIRE -64 176 -112 176
WIRE 160 176 64 176
WIRE -112 208 -112 176
WIRE 64 208 64 176
WIRE -64 224 -64 176
WIRE 176 224 176 208
WIRE 176 224 160 224
WIRE 272 224 176 224
WIRE 160 256 160 224
WIRE 208 256 208 208
WIRE 320 256 208 256
WIRE 320 272 320 256
WIRE 64 320 64 288
WIRE 496 320 384 320
WIRE 496 352 496 320
WIRE 320 384 320 368
WIRE -64 432 -64 304
WIRE 192 432 192 208
WIRE 192 432 -64 432
WIRE 496 448 496 432
FLAG -112 208 0
FLAG 416 208 0
FLAG 64 320 0
FLAG 16 160 0
FLAG 320 464 0
FLAG 496 448 0
FLAG 160 336 0
SYMBOL Comparators\\LT1011 192 160 R0
SYMATTR InstName U1
SYMBOL voltage -64 48 R0
WINDOW 123 0 0 Left 0
WINDOW 39 0 0 Left 0
SYMATTR InstName V1
SYMATTR Value 15
SYMBOL voltage -64 208 R0
WINDOW 123 0 0 Left 0
WINDOW 39 0 0 Left 0
SYMATTR InstName V2
SYMATTR Value 15
SYMBOL res 144 240 R0
SYMATTR InstName R1
SYMATTR Value 1k
SYMBOL voltage 416 112 R0
WINDOW 123 0 0 Left 0
WINDOW 39 0 0 Left 0
SYMATTR InstName V3
SYMATTR Value 5
SYMBOL voltage 64 192 R0
WINDOW 3 -81 97 Left 2
WINDOW 123 0 0 Left 0
WINDOW 39 0 0 Left 0
SYMATTR Value SINE(0 1 1k)
SYMATTR InstName V4
SYMBOL npn 384 272 M0
SYMATTR InstName Q1
SYMBOL res 304 368 R0
SYMATTR InstName R2
SYMATTR Value 1k
SYMBOL voltage 496 336 R0
WINDOW 3 24 44 Left 2
WINDOW 123 0 0 Left 0
WINDOW 39 0 0 Left 0
SYMATTR Value PULSE(0 5 0 .001m .001m 5m 10m)
SYMATTR InstName V5
TEXT 64 -128 Left 2 ;.dc v4 -1 1 1u
TEXT 16 -88 Left 2 !.tran 0 20m 0 .001m
