Version 4
SHEET 1 1668 680
WIRE -48 -336 -96 -336
WIRE 976 -336 48 -336
WIRE 128 -256 -320 -256
WIRE 736 -256 128 -256
WIRE 912 -256 736 -256
WIRE 128 -192 128 -256
WIRE 736 -96 736 -256
WIRE 128 -80 128 -112
WIRE 128 -80 32 -80
WIRE 224 -80 128 -80
WIRE -320 -48 -320 -256
WIRE 32 -48 32 -80
WIRE 224 -48 224 -80
WIRE 912 -32 912 -256
WIRE -96 0 -96 -336
WIRE -32 0 -96 0
WIRE 304 0 288 0
WIRE 400 0 384 0
WIRE 400 16 400 0
WIRE 624 16 464 16
WIRE 736 16 736 -16
WIRE 736 16 688 16
WIRE 848 16 736 16
WIRE -96 48 -96 0
WIRE 736 48 736 16
WIRE 400 128 400 96
WIRE 912 128 912 64
WIRE 976 128 976 -336
WIRE 976 128 912 128
WIRE 1040 128 976 128
WIRE 1072 128 1040 128
WIRE 736 144 736 112
WIRE 1072 144 1072 128
WIRE -96 160 -96 128
WIRE 32 160 32 48
WIRE 128 160 32 160
WIRE -320 176 -320 32
WIRE -256 176 -320 176
WIRE 32 176 32 160
WIRE 224 176 224 48
WIRE 464 176 464 16
WIRE 464 176 224 176
WIRE 912 176 912 128
WIRE -256 224 -256 176
WIRE 128 224 128 160
WIRE 128 224 96 224
WIRE 160 224 128 224
WIRE 736 224 736 208
WIRE 848 224 736 224
WIRE 736 240 736 224
WIRE 736 240 560 240
WIRE 1072 272 1072 224
WIRE 464 288 464 176
WIRE 496 288 464 288
WIRE 736 288 736 240
WIRE -320 320 -320 176
WIRE 32 320 32 272
WIRE 224 320 224 272
WIRE 672 336 560 336
WIRE 560 368 560 336
WIRE -320 480 -320 400
WIRE 32 480 32 400
WIRE 32 480 -320 480
WIRE 224 480 224 400
WIRE 224 480 32 480
WIRE 560 480 560 448
WIRE 560 480 224 480
WIRE 736 480 736 384
WIRE 736 480 560 480
WIRE 912 480 912 272
WIRE 912 480 736 480
FLAG -256 224 0
FLAG 1072 272 0
FLAG 1040 128 vo
FLAG 400 128 0
FLAG -96 160 0
DATAFLAG 944 128 ""
DATAFLAG 224 112 ""
DATAFLAG 784 16 ""
DATAFLAG 816 224 ""
DATAFLAG 96 -80 ""
SYMBOL npn 496 240 R0
SYMATTR InstName Q5
SYMATTR Value 2N3904
SYMBOL npn 672 288 R0
SYMATTR InstName Q6
SYMATTR Value 2N3904
SYMBOL diode 720 144 R0
WINDOW 3 -30 27 Left 2
SYMATTR InstName D1
SYMBOL diode 720 48 R0
WINDOW 3 -36 38 Left 2
SYMATTR InstName D2
SYMBOL current 736 -96 R0
WINDOW 123 0 0 Left 2
WINDOW 39 0 0 Left 2
WINDOW 3 38 26 Left 2
SYMATTR Value 615”
SYMATTR InstName I3
SYMBOL npn 848 -32 R0
SYMATTR InstName Q7
SYMATTR Value 2N3904
SYMBOL pnp 848 272 M180
SYMATTR InstName Q8
SYMATTR Value 2N3906
SYMBOL voltage -320 -64 R0
WINDOW 123 0 0 Left 2
WINDOW 39 0 0 Left 2
SYMATTR InstName V1
SYMATTR Value 12
SYMBOL voltage -320 304 R0
WINDOW 123 0 0 Left 2
WINDOW 39 0 0 Left 2
SYMATTR InstName V2
SYMATTR Value 12
SYMBOL res 1056 128 R0
SYMATTR InstName RL
SYMATTR Value 100k
SYMBOL current 128 -192 R0
WINDOW 123 0 0 Left 2
WINDOW 39 0 0 Left 2
SYMATTR InstName I1
SYMATTR Value 30.006”
SYMBOL pnp -32 48 M180
WINDOW 0 51 32 Left 2
WINDOW 3 46 62 Left 2
SYMATTR InstName Q1
SYMATTR Value 2N3906
SYMBOL pnp 288 48 R180
WINDOW 0 52 34 Left 2
WINDOW 3 61 69 Left 2
SYMATTR InstName Q2
SYMATTR Value 2N3906
SYMBOL npn 160 176 R0
SYMATTR InstName Q3
SYMATTR Value 2N3904
SYMBOL npn 96 176 M0
SYMATTR InstName Q4
SYMATTR Value 2N3904
SYMBOL res 208 304 R0
SYMATTR InstName R1
SYMATTR Value 10k
SYMBOL res 16 304 R0
SYMATTR InstName R2
SYMATTR Value 10k
SYMBOL cap 688 0 R90
WINDOW 0 0 32 VBottom 2
WINDOW 3 32 32 VTop 2
SYMATTR InstName C1
SYMATTR Value 30p
SYMBOL res 544 352 R0
SYMATTR InstName R3
SYMATTR Value 100k
SYMBOL voltage 400 0 R0
WINDOW 123 24 130 Left 2
WINDOW 39 0 0 Left 2
WINDOW 3 -97 -59 Left 2
SYMATTR Value2 AC 1
SYMATTR Value PULSE(-4 4 0 .01u .01u .5m 1m)
SYMATTR InstName V3
SYMBOL res -112 32 R0
SYMATTR InstName R4
SYMATTR Value 10k
SYMBOL res 48 -352 R90
WINDOW 0 0 56 VBottom 2
WINDOW 3 32 56 VTop 2
SYMATTR InstName R5
SYMATTR Value 10k
SYMBOL res 400 -16 R90
WINDOW 0 0 56 VBottom 2
WINDOW 3 32 56 VTop 2
SYMATTR InstName R6
SYMATTR Value 5k
TEXT 1000 -184 Left 2 ;.op
TEXT 1008 -320 Left 2 ;.ac dec 1000 .1 10meg
TEXT 1008 -280 Left 2 ;.tf v(vo) v3
TEXT 1000 -224 Left 2 !.tran 0 2m 0 .01u
