Version 4
SHEET 1 1568 680
WIRE 112 -256 -320 -256
WIRE 304 -256 112 -256
WIRE 448 -256 304 -256
WIRE 736 -256 448 -256
WIRE 912 -256 736 -256
WIRE 112 -224 112 -256
WIRE 304 -224 304 -256
WIRE 448 -192 448 -256
WIRE 736 -96 736 -256
WIRE 112 -80 112 -144
WIRE 304 -80 304 -144
WIRE -320 -48 -320 -256
WIRE 192 -32 176 -32
WIRE 240 -32 192 -32
WIRE 912 -32 912 -256
WIRE 448 0 448 -112
WIRE 448 16 448 0
WIRE 528 16 448 16
WIRE 736 16 736 -16
WIRE 736 16 592 16
WIRE 752 16 736 16
WIRE 848 16 752 16
WIRE 112 48 112 16
WIRE 192 48 192 -32
WIRE 192 48 112 48
WIRE 304 48 304 16
WIRE 448 48 448 16
WIRE 448 48 304 48
WIRE 736 48 736 16
WIRE 112 64 112 48
WIRE 448 80 448 48
WIRE 112 128 112 64
WIRE 304 128 304 48
WIRE 912 128 912 64
WIRE 944 128 912 128
WIRE 1040 128 944 128
WIRE 1072 128 1040 128
WIRE 1344 128 1072 128
WIRE 736 144 736 112
WIRE 1072 144 1072 128
WIRE -96 160 -144 160
WIRE -320 176 -320 32
WIRE -256 176 -320 176
WIRE -96 176 -96 160
WIRE -96 176 -112 176
WIRE 48 176 0 176
WIRE 384 176 368 176
WIRE 912 176 912 128
WIRE -112 192 -112 176
WIRE -256 224 -256 176
WIRE 208 224 112 224
WIRE 304 224 208 224
WIRE 448 224 448 160
WIRE 736 224 736 208
WIRE 800 224 736 224
WIRE 848 224 800 224
WIRE 736 240 736 224
WIRE 736 240 560 240
WIRE 1072 272 1072 224
WIRE 1344 272 1344 128
WIRE 0 288 0 176
WIRE 400 288 0 288
WIRE 448 288 448 224
WIRE 496 288 448 288
WIRE 736 288 736 240
WIRE -320 320 -320 176
WIRE -112 320 -112 272
WIRE 208 320 208 224
WIRE 656 336 560 336
WIRE 672 336 656 336
WIRE 448 368 448 288
WIRE -144 432 -144 160
WIRE 384 432 384 176
WIRE 384 432 -144 432
WIRE -320 480 -320 400
WIRE 208 480 208 400
WIRE 208 480 -320 480
WIRE 448 480 448 448
WIRE 448 480 208 480
WIRE 736 480 736 384
WIRE 736 480 448 480
WIRE 912 480 912 272
WIRE 912 480 736 480
WIRE 256 512 144 512
WIRE 400 512 400 288
WIRE 400 512 336 512
WIRE 1344 512 1344 352
WIRE 1344 512 400 512
WIRE 144 544 144 512
FLAG -112 320 0
FLAG -256 224 0
FLAG 1072 272 0
FLAG 1040 128 vo
FLAG 144 544 0
DATAFLAG 208 224 ""
DATAFLAG 304 48 ""
DATAFLAG 112 64 ""
DATAFLAG 944 128 ""
DATAFLAG 752 16 ""
DATAFLAG 800 224 ""
DATAFLAG 656 336 ""
DATAFLAG 448 0 ""
DATAFLAG 448 224 ""
SYMBOL npn 48 128 R0
SYMATTR InstName Q1
SYMATTR Value 2N3904
SYMBOL npn 368 128 M0
SYMATTR InstName Q2
SYMATTR Value 2N3904
SYMBOL pnp 176 16 R180
SYMATTR InstName Q3
SYMATTR Value 2N3906
SYMBOL pnp 240 16 M180
SYMATTR InstName Q4
SYMATTR Value 2N3906
SYMBOL current 208 320 R0
WINDOW 123 0 0 Left 2
WINDOW 39 0 0 Left 2
SYMATTR InstName I1
SYMATTR Value 17µ
SYMBOL npn 496 240 R0
SYMATTR InstName Q5
SYMATTR Value 2N3904
SYMBOL npn 672 288 R0
SYMATTR InstName Q6
SYMATTR Value 2N3904
SYMBOL diode 720 144 R0
SYMATTR InstName D1
SYMBOL diode 720 48 R0
SYMATTR InstName D2
SYMBOL current 736 -96 R0
WINDOW 123 0 0 Left 2
WINDOW 39 0 0 Left 2
SYMATTR InstName I3
SYMATTR Value 615µ
SYMBOL npn 848 -32 R0
SYMATTR InstName Q7
SYMATTR Value 2N3904
SYMBOL pnp 848 272 M180
SYMATTR InstName Q8
SYMATTR Value 2N3906
SYMBOL voltage -320 -64 R0
WINDOW 123 0 0 Left 2
WINDOW 39 0 0 Left 2
SYMATTR InstName V1
SYMATTR Value 12
SYMBOL voltage -320 304 R0
WINDOW 123 0 0 Left 2
WINDOW 39 0 0 Left 2
SYMATTR InstName V2
SYMATTR Value 12
SYMBOL res 96 -240 R0
SYMATTR InstName R2
SYMATTR Value 100k
SYMBOL res 288 -240 R0
SYMATTR InstName R3
SYMATTR Value 100k
SYMBOL current 448 -192 R0
WINDOW 0 24 80 Left 2
WINDOW 3 24 0 Left 2
WINDOW 123 0 0 Left 2
WINDOW 39 0 0 Left 2
SYMATTR InstName I2
SYMATTR Value 35.4223µ
SYMBOL res 1056 128 R0
SYMATTR InstName R4
SYMATTR Value 1k
SYMBOL res 432 64 R0
SYMATTR InstName R5
SYMATTR Value 577k
SYMBOL res 432 352 R0
SYMATTR InstName R6
SYMATTR Value 31.9k
SYMBOL res 1328 256 R0
SYMATTR InstName R1
SYMATTR Value 9k
SYMBOL res 352 496 R90
WINDOW 0 0 56 VBottom 2
WINDOW 3 32 56 VTop 2
SYMATTR InstName R7
SYMATTR Value 1k
SYMBOL voltage -112 176 R0
WINDOW 123 24 124 Left 2
WINDOW 39 0 0 Left 2
SYMATTR Value2 AC 1 0
SYMATTR InstName V3
SYMATTR Value SINE(0 1 100)
SYMBOL cap 592 0 R90
WINDOW 0 0 32 VBottom 2
WINDOW 3 32 32 VTop 2
SYMATTR InstName C1
SYMATTR Value 2n
TEXT -352 488 Left 2 !;op
TEXT 960 -64 Left 2 !;dc i2 35.422u 35.423u .0001u
TEXT 1304 -96 Left 2 !.ac dec 1000 1 1meg
TEXT 1016 -184 Left 2 !;tran 0 .1 0 .001
