Version 4
SHEET 1 880 680
WIRE 240 -304 144 -304
WIRE -368 -288 -464 -288
WIRE -320 -288 -368 -288
WIRE -128 -288 -224 -288
WIRE -16 -288 -128 -288
WIRE 32 -288 -16 -288
WIRE 144 -288 144 -304
WIRE 144 -288 96 -288
WIRE -464 -256 -464 -288
WIRE -368 -256 -368 -288
WIRE -224 -256 -224 -288
WIRE -128 -256 -128 -288
WIRE -16 -256 -16 -288
WIRE 144 -256 144 -288
WIRE 240 -256 240 -304
WIRE -320 -240 -320 -288
WIRE -272 -240 -320 -240
WIRE -272 -192 -320 -192
WIRE -464 -160 -464 -176
WIRE -368 -160 -368 -176
WIRE -368 -160 -464 -160
WIRE -320 -160 -320 -192
WIRE -320 -160 -368 -160
WIRE -224 -160 -224 -176
WIRE -224 -160 -320 -160
WIRE -128 -160 -128 -176
WIRE -128 -160 -224 -160
WIRE -16 -160 -16 -192
WIRE -16 -160 -128 -160
WIRE 144 -160 144 -192
WIRE 144 -160 -16 -160
WIRE 240 -160 240 -176
WIRE 240 -160 144 -160
WIRE -16 -144 -16 -160
FLAG -16 -144 0
SYMBOL res -144 -272 R0
SYMATTR InstName R1
SYMATTR Value 2k
SYMBOL Misc\\xtal 96 -304 R90
WINDOW 0 0 32 VBottom 2
WINDOW 3 32 32 VTop 2
SYMATTR InstName C5
SYMATTR Value 9.95f
SYMATTR SpiceLine Rser=640 Lser=2.55 Cpar=2.49p
SYMBOL cap 128 -256 R0
SYMATTR InstName C6
SYMATTR Value 1n
SYMBOL cap -32 -256 R0
SYMATTR InstName C7
SYMATTR Value .1n
SYMBOL g -224 -272 R0
SYMATTR InstName G1
SYMATTR Value -1
SYMBOL res -384 -272 R0
SYMATTR InstName R2
SYMATTR Value 1k
SYMBOL voltage -464 -272 R0
WINDOW 123 24 50 Left 2
WINDOW 39 0 0 Left 2
SYMATTR InstName V1
SYMATTR Value ""
SYMATTR Value2 AC 1 0
SYMBOL res 224 -272 R0
SYMATTR InstName R3
SYMATTR Value 1700
TEXT -312 152 Left 2 !;op
TEXT 48 0 Left 2 !.ac lin 100000 0.999meg 1.001meg
