Version 4
SHEET 1 880 680
WIRE -304 -400 -688 -400
WIRE -192 -400 -304 -400
WIRE -192 -384 -192 -400
WIRE -304 -368 -304 -400
WIRE -192 -288 -192 -304
WIRE -16 -288 -192 -288
WIRE 32 -288 -16 -288
WIRE 144 -288 96 -288
WIRE 224 -288 144 -288
WIRE -16 -256 -16 -288
WIRE 144 -256 144 -288
WIRE -688 -240 -688 -400
WIRE -304 -240 -304 -288
WIRE -304 -240 -368 -240
WIRE -256 -240 -304 -240
WIRE -304 -192 -304 -240
WIRE -192 -176 -192 -192
WIRE -16 -160 -16 -192
WIRE 144 -160 144 -192
WIRE 144 -160 -16 -160
WIRE -16 -144 -16 -160
WIRE -192 -80 -192 -96
WIRE -48 -80 -192 -80
WIRE -192 -64 -192 -80
WIRE -688 -48 -688 -160
WIRE -304 -48 -304 -112
WIRE -304 -48 -688 -48
WIRE -304 -32 -304 -48
WIRE -192 48 -192 16
WIRE -48 48 -48 -16
WIRE -48 48 -192 48
WIRE -32 48 -48 48
WIRE -32 80 -32 48
WIRE -368 128 -368 -240
WIRE 224 128 224 -288
WIRE 224 128 -368 128
FLAG -304 -32 0
FLAG -32 80 0
FLAG -16 -144 0
SYMBOL res -208 -400 R0
SYMATTR InstName R1
SYMATTR Value 2k
SYMBOL npn -256 -288 R0
SYMATTR InstName Q1
SYMATTR Value 2N2222
SYMBOL res -320 -384 R0
SYMATTR InstName R4
SYMATTR Value 7k5
SYMBOL res -320 -208 R0
SYMATTR InstName R5
SYMATTR Value 2k2
SYMBOL res -208 -80 R0
SYMATTR InstName R6
SYMATTR Value 980
SYMBOL cap -64 -80 R0
SYMATTR InstName C4
SYMATTR Value 10Á
SYMBOL res -208 -192 R0
SYMATTR InstName R7
SYMATTR Value 20
SYMBOL Misc\\xtal 96 -304 R90
WINDOW 0 0 32 VBottom 2
WINDOW 3 32 32 VTop 2
SYMATTR InstName C5
SYMATTR Value 9.95f
SYMATTR SpiceLine Rser=640 Lser=2.55 Cpar=2.49p
SYMBOL cap 128 -256 R0
SYMATTR InstName C6
SYMATTR Value 1n
SYMBOL cap -32 -256 R0
SYMATTR InstName C7
SYMATTR Value .1n
SYMBOL voltage -688 -256 R0
WINDOW 123 0 0 Left 2
WINDOW 39 0 0 Left 2
SYMATTR InstName V2
SYMATTR Value 12
TEXT -312 152 Left 2 !;op
TEXT 320 -8 Left 2 !.tran 0 100m 99m .01u startup
