Version 4
SHEET 1 880 680
WIRE -336 -416 -688 -416
WIRE -16 -416 -336 -416
WIRE 112 -416 -16 -416
WIRE -16 -400 -16 -416
WIRE 112 -336 112 -416
WIRE -528 -272 -544 -272
WIRE -448 -272 -464 -272
WIRE -16 -272 -16 -320
WIRE -16 -272 -448 -272
WIRE -688 -240 -688 -416
WIRE -544 -224 -544 -272
WIRE -336 -224 -336 -416
WIRE -16 -224 -16 -272
WIRE -448 -176 -448 -272
WIRE -400 -176 -448 -176
WIRE 112 -176 112 -256
WIRE 112 -176 48 -176
WIRE 256 -176 112 -176
WIRE 256 -160 256 -176
WIRE 112 -144 112 -176
WIRE -544 -128 -544 -144
WIRE -336 -96 -336 -128
WIRE -224 -96 -336 -96
WIRE -16 -96 -16 -128
WIRE -16 -96 -160 -96
WIRE 256 -80 256 -96
WIRE -336 -64 -336 -96
WIRE -16 -64 -16 -96
WIRE -688 -48 -688 -160
WIRE 112 16 112 -64
FLAG -688 -48 0
FLAG -336 16 0
FLAG -16 16 0
FLAG 112 16 0
FLAG 256 -80 0
FLAG -544 -128 0
SYMBOL npn -400 -224 R0
SYMATTR InstName Q1
SYMATTR Value 2N2222
SYMBOL Misc\\xtal -160 -112 R90
WINDOW 0 0 32 VBottom 2
WINDOW 3 32 32 VTop 2
SYMATTR InstName C5
SYMATTR Value 9.95f
SYMATTR SpiceLine Rser=640 Lser=2.55 Cpar=2.49p
SYMBOL voltage -688 -256 R0
WINDOW 123 0 0 Left 2
WINDOW 39 0 0 Left 2
SYMATTR InstName V2
SYMATTR Value 15
SYMBOL res -352 -80 R0
SYMATTR InstName R1
SYMATTR Value 1k2
SYMBOL npn 48 -224 M0
SYMATTR InstName Q2
SYMATTR Value 2N2222
SYMBOL res -32 -416 R0
SYMATTR InstName R2
SYMATTR Value 1k2
SYMBOL res -32 -80 R0
SYMATTR InstName R3
SYMATTR Value 500
SYMBOL res 96 -352 R0
SYMATTR InstName R4
SYMATTR Value 30k
SYMBOL res 96 -160 R0
SYMATTR InstName R5
SYMATTR Value 10k
SYMBOL cap 240 -160 R0
SYMATTR InstName C1
SYMATTR Value 10n
SYMBOL cap -464 -288 R90
WINDOW 0 0 32 VBottom 2
WINDOW 3 32 32 VTop 2
SYMATTR InstName C2
SYMATTR Value 10n
SYMBOL res -560 -240 R0
SYMATTR InstName R6
SYMATTR Value 2700
TEXT -312 152 Left 2 ;.op
TEXT -312 120 Left 2 !.tran 0 400m 399m .01u startup
