Version 4
SHEET 1 880 680
WIRE -256 -400 -688 -400
WIRE -192 -400 -256 -400
WIRE -192 -368 -192 -400
WIRE -256 -352 -256 -400
WIRE -688 -240 -688 -400
WIRE -256 -240 -256 -288
WIRE -192 -240 -192 -288
WIRE -192 -240 -256 -240
WIRE -432 -176 -496 -176
WIRE -304 -176 -368 -176
WIRE -240 -176 -304 -176
WIRE -304 -128 -304 -176
WIRE -304 -128 -384 -128
WIRE -304 -96 -304 -128
WIRE -192 -80 -192 -144
WIRE -48 -80 -192 -80
WIRE -384 -64 -384 -128
WIRE -192 -64 -192 -80
WIRE -688 48 -688 -160
WIRE -496 48 -496 -176
WIRE -496 48 -688 48
WIRE -384 48 -384 0
WIRE -384 48 -496 48
WIRE -304 48 -304 -16
WIRE -304 48 -384 48
WIRE -192 48 -192 16
WIRE -192 48 -304 48
WIRE -48 48 -48 -16
WIRE -48 48 -192 48
WIRE -32 48 -48 48
WIRE -32 80 -32 48
FLAG -32 80 0
SYMBOL res -320 -112 R0
SYMATTR InstName R5
SYMATTR Value 10Meg
SYMBOL res -208 -80 R0
SYMATTR InstName R6
SYMATTR Value 1k
SYMBOL cap -64 -80 R0
SYMATTR InstName C4
SYMATTR Value 100n
SYMBOL Misc\\xtal -368 -192 R90
WINDOW 0 0 32 VBottom 2
WINDOW 3 32 32 VTop 2
SYMATTR InstName C5
SYMATTR Value 9.95f
SYMATTR SpiceLine Rser=640 Lser=2.55 Cpar=2.49p
SYMBOL voltage -688 -256 R0
WINDOW 123 0 0 Left 2
WINDOW 39 0 0 Left 2
SYMATTR InstName V2
SYMATTR Value 12
SYMBOL njf -240 -240 R0
SYMATTR InstName J1
SYMATTR Value U309
SYMBOL ind -208 -384 R0
SYMATTR InstName L1
SYMATTR Value 90”
SYMBOL cap -272 -352 R0
SYMATTR InstName C1
SYMATTR Value 270p
SYMBOL diode -368 0 R180
WINDOW 0 24 64 Left 2
WINDOW 3 24 0 Left 2
SYMATTR InstName D1
SYMATTR Value GSD2004W-V
TEXT -312 152 Left 2 !;op
TEXT 320 -8 Left 2 !.tran 0 100m 99m .01u startup
