Version 4
SHEET 1 948 680
WIRE 672 -112 448 -112
WIRE 672 -96 672 -112
WIRE 448 -80 448 -112
WIRE 112 -16 -112 -16
WIRE 272 -16 112 -16
WIRE 672 0 672 -16
WIRE 272 32 272 -16
WIRE 112 64 112 -16
WIRE 448 96 448 -16
WIRE 528 96 448 96
WIRE 640 96 608 96
WIRE 736 96 720 96
WIRE 816 96 800 96
WIRE 944 96 816 96
WIRE 272 128 272 112
WIRE 448 128 448 96
WIRE 448 128 272 128
WIRE -112 144 -112 -16
WIRE 448 144 448 128
WIRE 816 160 816 96
WIRE 112 176 112 144
WIRE 112 176 32 176
WIRE 208 176 112 176
WIRE 112 256 112 176
WIRE 272 256 272 224
WIRE 400 256 272 256
WIRE -112 272 -112 224
WIRE 400 288 400 256
WIRE 112 400 112 336
WIRE 272 400 272 336
WIRE 272 400 112 400
WIRE 400 400 400 352
WIRE 400 400 272 400
WIRE 448 400 448 208
WIRE 448 400 400 400
WIRE 816 400 816 224
WIRE 816 400 448 400
WIRE 112 432 112 400
WIRE 32 528 32 176
WIRE 944 528 944 96
WIRE 944 528 32 528
FLAG -112 272 0
FLAG 112 432 0
FLAG 672 0 0
SYMBOL npn 208 128 R0
SYMATTR InstName Q1
SYMATTR Value 2N2222
SYMBOL res 256 240 R0
SYMATTR InstName R1
SYMATTR Value 500
SYMBOL res 96 240 R0
SYMATTR InstName R2
SYMATTR Value 50k
SYMBOL res 96 48 R0
SYMATTR InstName R3
SYMATTR Value 190k
SYMBOL ind 256 16 R0
SYMATTR InstName L1
SYMATTR Value 800”
SYMBOL voltage -112 128 R0
WINDOW 123 0 0 Left 0
WINDOW 39 0 0 Left 0
SYMATTR InstName V1
SYMATTR Value 12
SYMBOL cap 384 288 R0
SYMATTR InstName c5
SYMATTR Value 1”
SYMBOL cap 432 144 R0
SYMATTR InstName C1
SYMATTR Value 22n
SYMBOL ind 624 80 R90
WINDOW 0 5 56 VBottom 2
WINDOW 3 32 56 VTop 2
SYMATTR InstName L2
SYMATTR Value 211”
SYMBOL cap 800 160 R0
SYMATTR InstName C2
SYMATTR Value 220n
SYMBOL cap 800 80 R90
WINDOW 0 0 32 VBottom 2
WINDOW 3 32 32 VTop 2
SYMATTR InstName C3
SYMATTR Value 7.2n
SYMBOL cap 432 -80 R0
SYMATTR InstName C4
SYMATTR Value 1”
SYMBOL res 656 -112 R0
SYMATTR InstName R4
SYMATTR Value 4k7
SYMBOL res 736 80 R90
WINDOW 0 0 56 VBottom 2
WINDOW 3 32 56 VTop 2
SYMATTR InstName R5
SYMATTR Value 9
TEXT -104 -224 Left 2 !.op
TEXT -32 592 Left 2 ;.tran 0 50m 40m .01u startup
