Version 4
SHEET 1 880 680
WIRE 112 0 -128 0
WIRE 224 0 112 0
WIRE 224 16 224 0
WIRE 112 32 112 0
WIRE -128 80 -128 0
WIRE 224 112 224 96
WIRE 352 112 224 112
WIRE 416 112 352 112
WIRE 544 112 480 112
WIRE 592 112 544 112
WIRE 640 112 592 112
WIRE 640 128 640 112
WIRE 544 144 544 112
WIRE 112 160 112 112
WIRE 112 160 32 160
WIRE 160 160 112 160
WIRE 32 192 32 160
WIRE 112 208 112 160
WIRE 224 240 224 208
WIRE 352 240 352 176
WIRE 352 240 224 240
WIRE 224 368 224 320
WIRE -128 464 -128 160
WIRE 32 464 32 256
WIRE 32 464 -128 464
WIRE 112 464 112 288
WIRE 112 464 32 464
WIRE 224 464 224 448
WIRE 224 464 112 464
WIRE 352 464 352 304
WIRE 352 464 224 464
WIRE 544 464 544 224
WIRE 544 464 352 464
WIRE 640 464 640 208
WIRE 640 464 544 464
WIRE 32 496 32 464
FLAG 32 496 0
FLAG 592 112 v0
SYMBOL npn 160 112 R0
SYMATTR InstName Q1
SYMATTR Value 2N2222
SYMBOL res 208 0 R0
SYMATTR InstName R1
SYMATTR Value 680
SYMBOL res 208 352 R0
SYMATTR InstName R2
SYMATTR Value 150
SYMBOL res 96 192 R0
SYMATTR InstName R3
SYMATTR Value 680
SYMBOL res 96 16 R0
SYMATTR InstName R4
SYMATTR Value 4.7K
SYMBOL Misc\\battery -128 64 R0
WINDOW 123 24 132 Left 2
WINDOW 39 0 0 Left 2
SYMATTR Value2 AC 1
SYMATTR InstName V1
SYMATTR Value 10
SYMBOL ind 208 224 R0
SYMATTR InstName L1
SYMATTR Value 530”
SYMBOL ind 560 240 R180
WINDOW 0 36 80 Left 2
WINDOW 3 36 40 Left 2
SYMATTR InstName L2
SYMATTR Value 0.7”
SYMBOL cap 336 112 R0
WINDOW 0 -37 28 Left 2
SYMATTR InstName C2
SYMATTR Value 30p
SYMBOL cap 336 240 R0
WINDOW 0 -38 37 Left 2
SYMATTR InstName C1
SYMATTR Value 2200p
SYMBOL cap 480 96 R90
WINDOW 0 0 32 VBottom 2
WINDOW 3 32 32 VTop 2
SYMATTR InstName C3
SYMATTR Value .47”
SYMBOL cap 16 192 R0
SYMATTR InstName C4
SYMATTR Value .47”
SYMBOL res 624 112 R0
SYMATTR InstName R5
SYMATTR Value 5K
TEXT -120 -88 Left 2 ;.tran 0 100u 0 .001u
TEXT -120 -56 Left 2 !.op
