Version 4
SHEET 1 976 680
WIRE 144 96 64 96
WIRE 272 96 224 96
WIRE 400 96 272 96
WIRE 64 144 64 96
WIRE 400 144 400 96
WIRE 272 176 272 96
WIRE 352 224 352 208
WIRE 64 320 64 224
WIRE 160 320 64 320
WIRE 272 320 272 240
WIRE 272 320 160 320
WIRE 352 320 352 304
WIRE 352 320 272 320
WIRE 400 320 400 208
WIRE 400 320 352 320
WIRE 160 352 160 320
FLAG 160 352 0
SYMBOL Misc\\SCR 384 144 R0
SYMATTR InstName U1
SYMATTR Value 2N2573
SYMBOL cap 256 176 R0
SYMATTR InstName C1
SYMATTR Value 1n
SYMBOL res 240 80 R90
WINDOW 0 0 56 VBottom 2
WINDOW 3 32 56 VTop 2
SYMATTR InstName R1
SYMATTR Value 139k
SYMBOL voltage 64 128 R0
WINDOW 123 0 0 Left 0
WINDOW 39 0 0 Left 0
SYMATTR InstName V1
SYMATTR Value 100
SYMBOL res 336 208 R0
SYMATTR InstName R2
SYMATTR Value 10k
TEXT 144 32 Left 2 !.tran 10m startup
TEXT 136 -24 Left 2 !.lib "E:\\Claudio\\Docencia personal\\LTSpice\\thyristr.lib"
TEXT 224 416 Left 2 ;.dc i1 0 15m .01u
