Version 4
SHEET 1 1080 680
WIRE 144 112 128 112
WIRE 240 112 224 112
WIRE 256 112 240 112
WIRE 32 144 -48 144
WIRE 128 144 128 112
WIRE 128 144 112 144
WIRE 256 144 256 112
WIRE -48 176 -48 144
WIRE 128 176 128 144
WIRE 208 176 176 176
WIRE 176 192 176 176
WIRE 208 208 208 176
WIRE -48 272 -48 256
WIRE 128 272 128 240
WIRE 128 272 -48 272
WIRE 176 272 128 272
WIRE 256 272 256 208
WIRE 256 272 176 272
WIRE 256 288 256 272
FLAG 256 288 0
FLAG 240 112 a
SYMBOL Misc\\SCR 240 144 R0
SYMATTR InstName U1
SYMATTR Value 2n1595
SYMBOL res 160 176 R0
SYMATTR InstName R1
SYMATTR Value 1k
SYMBOL cap 112 176 R0
SYMATTR InstName C1
SYMATTR Value 10n
SYMBOL res 128 128 R90
WINDOW 0 0 56 VBottom 2
WINDOW 3 32 56 VTop 2
SYMATTR InstName R2
SYMATTR Value 643k
SYMBOL voltage -48 160 R0
WINDOW 123 0 0 Left 0
WINDOW 39 0 0 Left 0
SYMATTR InstName V1
SYMATTR Value 200
SYMBOL res 240 96 R90
WINDOW 0 0 56 VBottom 2
WINDOW 3 32 56 VTop 2
SYMATTR InstName R3
SYMATTR Value 100
TEXT 288 24 Left 2 !.lib "E:\\Claudio\\Docencia personal\\LTSpice\\Osciladores\\thyristr.lib"
TEXT 72 32 Left 2 !;dc i1 0 10m .1u
TEXT 376 96 Left 2 !.tran 0 50m 0 1u startup
