Version 4
SHEET 1 1080 680
WIRE 240 112 96 112
WIRE 256 112 240 112
WIRE 256 144 256 112
WIRE 96 160 96 112
WIRE 208 176 176 176
WIRE 176 192 176 176
WIRE 208 208 208 176
WIRE 96 272 96 240
WIRE 176 272 96 272
WIRE 256 272 256 208
WIRE 256 272 176 272
WIRE 256 288 256 272
FLAG 256 288 0
FLAG 240 112 a
SYMBOL Misc\\SCR 240 144 R0
SYMATTR InstName U1
SYMATTR Value 2n1595
SYMBOL current 96 240 R180
WINDOW 0 24 80 Left 2
WINDOW 3 24 0 Left 2
WINDOW 123 0 0 Left 0
WINDOW 39 0 0 Left 0
SYMATTR InstName I1
SYMATTR Value 1m
SYMBOL res 160 176 R0
SYMATTR InstName R1
SYMATTR Value 1k
TEXT 288 24 Left 2 !.lib "E:\\Claudio\\Docencia personal\\LTSpice\\Osciladores\\thyristr.lib"
TEXT 72 72 Left 2 !.dc i1 0 10m .1u
