Version 4
SHEET 1 880 680
WIRE 48 -144 -112 -144
WIRE 192 -144 48 -144
WIRE 304 -144 192 -144
WIRE 48 -128 48 -144
WIRE 192 -48 192 -144
WIRE 304 -48 304 -144
WIRE 48 -16 48 -48
WIRE 48 -16 -32 -16
WIRE 48 16 48 -16
WIRE -112 32 -112 -144
WIRE -32 48 -32 -16
WIRE 192 64 192 32
WIRE 272 64 192 64
WIRE 304 64 304 16
WIRE 304 64 272 64
WIRE 48 112 48 96
WIRE 48 112 -32 112
WIRE 128 112 48 112
WIRE 48 192 48 112
WIRE 192 240 192 160
WIRE -112 352 -112 112
WIRE 48 352 48 272
WIRE 48 352 -112 352
WIRE 176 352 48 352
WIRE 192 352 192 320
WIRE 192 352 176 352
WIRE 176 384 176 352
FLAG 176 384 0
FLAG 272 64 va
SYMBOL npn 128 64 R0
SYMATTR InstName Q1
SYMATTR Value 2N2222
SYMBOL voltage -112 16 R0
WINDOW 123 0 0 Left 2
WINDOW 39 0 0 Left 2
SYMATTR InstName V1
SYMATTR Value 10
SYMBOL res 176 224 R0
SYMATTR InstName R1
SYMATTR Value 1k
SYMBOL res 32 0 R0
SYMATTR InstName R2
SYMATTR Value 3k3
SYMBOL res 32 176 R0
SYMATTR InstName R3
SYMATTR Value 3k3
SYMBOL cap -48 48 R0
SYMATTR InstName C2
SYMATTR Value 100”
SYMBOL ind2 176 -64 R0
SYMATTR InstName L1
SYMATTR Value 1”
SYMBOL cap 288 -48 R0
SYMATTR InstName C3
SYMATTR Value 2.53”
SYMBOL ind2 64 -32 R180
WINDOW 0 36 80 Left 2
WINDOW 3 36 40 Left 2
SYMATTR InstName L2
SYMATTR Value 1”
TEXT 456 0 Left 2 !k12 L1 L2 1
TEXT 472 280 Left 2 !.ic v(va)=9
TEXT 392 144 Left 2 !.tran 0 500u 400u .01u uic
TEXT 776 248 Left 2 !;op
