*version 6.3 795833275
u 6263
U? 44
V? 1
IC? 1
? 27
P? 1
IN? 2
R? 2
@libraries
@analysis
.DC 0 0 0 0 1 1
.TRAN 1 0 0 0
+0 5ns
+1 120ns
.OP 0 
.INC pcbex.stm
@polaris
boardstack=pcbex.bst
pcbfile=pcbex.asc
mindelay=2500mils
maxradius=40mils
minparlength=300mils
polarsetup=1
@targets
t 1;1965: a 0 s 13 0 14 8 hln 100 PKGREF=P1
t 1;1965: a 0 s 13 0 -10 16 hlb 100 GATE=A1
t 1;1966: a 0 s 13 0 14 8 hln 100 PKGREF=P1
t 1;1966: a 0 s 13 0 -10 16 hlb 100 GATE=A2
t 1;1967: a 0 s 13 0 14 8 hln 100 PKGREF=P1
t 1;1967: a 0 s 13 0 -10 16 hlb 100 GATE=A3
t 1;1968: a 0 s 13 0 14 8 hln 100 PKGREF=P1
t 1;1968: a 0 s 13 0 -10 16 hlb 100 GATE=A4
t 1;1969: a 0 s 13 0 14 8 hln 100 PKGREF=P1
t 1;1969: a 0 s 13 0 -10 16 hlb 100 GATE=A5
t 1;1970: a 0 s 13 0 14 8 hln 100 PKGREF=P1
t 1;1970: a 0 s 13 0 -10 16 hlb 100 GATE=A6
t 1;1971: a 0 s 13 0 14 8 hln 100 PKGREF=P1
t 1;1971: a 0 s 13 0 -10 16 hlb 100 GATE=A7
t 1;1972: a 0 s 13 0 14 8 hln 100 PKGREF=P1
t 1;1972: a 0 s 13 0 -10 16 hlb 100 GATE=A8
t 1;1973: a 0 s 13 0 14 8 hln 100 PKGREF=P1
t 1;1973: a 0 s 13 0 -10 16 hlb 100 GATE=A9
t 1;1974: a 0 s 13 0 14 8 hln 100 PKGREF=P1
t 1;1974: a 0 s 13 0 -10 16 hlb 100 GATE=A10
t 1;1975: a 0 s 13 0 14 8 hln 100 PKGREF=P1
t 1;1975: a 0 s 13 0 -10 16 hlb 100 GATE=A11
t 1;1976: a 0 s 13 0 14 8 hln 100 PKGREF=P1
t 1;1976: a 0 s 13 0 -10 16 hlb 100 GATE=A12
t 1;1977: a 0 s 13 0 14 8 hln 100 PKGREF=P1
t 1;1977: a 0 s 13 0 -10 16 hlb 100 GATE=A13
t 1;1978: a 0 s 13 0 14 8 hln 100 PKGREF=P1
t 1;1978: a 0 s 13 0 -10 16 hlb 100 GATE=A14
t 1;1979: a 0 s 13 0 14 8 hln 100 PKGREF=P1
t 1;1979: a 0 s 13 0 -10 16 hlb 100 GATE=A15
t 1;1980: a 0 s 13 0 14 8 hln 100 PKGREF=P1
t 1;1980: a 0 s 13 0 -10 16 hlb 100 GATE=A16
t 1;1981: a 0 s 13 0 14 8 hln 100 PKGREF=P1
t 1;1981: a 0 s 13 0 -10 16 hlb 100 GATE=A17
t 1;1982: a 0 s 13 0 14 8 hln 100 PKGREF=P1
t 1;1982: a 0 s 13 0 -10 16 hlb 100 GATE=A18
t 1;1983: a 0 s 13 0 14 8 hln 100 PKGREF=P1
t 1;1983: a 0 s 13 0 -10 16 hlb 100 GATE=A19
t 1;1984: a 0 s 13 0 14 8 hln 100 PKGREF=P1
t 1;1984: a 0 s 13 0 -10 16 hlb 100 GATE=A20
t 1;1985: a 0 s 13 0 14 8 hln 100 PKGREF=P1
t 1;1985: a 0 s 13 0 -10 16 hlb 100 GATE=A21
t 1;1986: a 0 s 13 0 14 8 hln 100 PKGREF=P1
t 1;1986: a 0 s 13 0 -10 16 hlb 100 GATE=A22
t 1;1987: a 0 s 13 0 14 8 hln 100 PKGREF=P1
t 1;1987: a 0 s 13 0 -10 16 hlb 100 GATE=A23
t 1;1988: a 0 s 13 0 14 8 hln 100 PKGREF=P1
t 1;1988: a 0 s 13 0 -10 16 hlb 100 GATE=A24
t 1;1989: a 0 s 13 0 14 8 hln 100 PKGREF=P1
t 1;1989: a 0 s 13 0 -10 16 hlb 100 GATE=A25
t 1;1990: a 0 s 13 0 14 8 hln 100 PKGREF=P1
t 1;1990: a 0 s 13 0 -10 16 hlb 100 GATE=A26
t 1;1991: a 0 s 13 0 14 8 hln 100 PKGREF=P1
t 1;1991: a 0 s 13 0 -10 16 hlb 100 GATE=A27
t 1;1992: a 0 s 13 0 14 8 hln 100 PKGREF=P1
t 1;1992: a 0 s 13 0 -10 16 hlb 100 GATE=A28
t 1;1993: a 0 s 13 0 14 8 hln 100 PKGREF=P1
t 1;1993: a 0 s 13 0 -10 16 hlb 100 GATE=A29
t 1;1994: a 0 s 13 0 14 8 hln 100 PKGREF=P1
t 1;1994: a 0 s 13 0 -10 16 hlb 100 GATE=A30
t 1;1995: a 0 s 13 0 14 8 hln 100 PKGREF=P1
t 1;1995: a 0 s 13 0 -10 16 hlb 100 GATE=A31
t 1;1996: a 0 s 13 0 14 8 hln 100 PKGREF=P1
t 1;1996: a 0 s 13 0 -10 16 hlb 100 GATE=B1
t 1;2541: a 0 s 0 0 0 0 hln 100 PKGREF=U1
t 1;2541: a 0 s 0 0 0 0 hln 100 PKGTYPE=DIP20
t 1;2542: a 0 s 0 0 0 0 hln 100 PKGREF=U2
t 1;2542: a 0 s 0 0 0 0 hln 100 PKGTYPE=DIP20
t 1;2543: a 0 s 0 0 0 0 hln 100 PKGREF=U3
t 1;2543: a 0 s 0 0 0 0 hln 100 PKGTYPE=DIP20
t 1;2544: a 0 s 0 0 0 0 hln 100 PKGREF=U4
t 1;2544: a 0 s 0 0 0 0 hln 100 PKGTYPE=DIP20
t 1;3944: a 0 s 0 0 0 0 hln 100 PKGREF=U19
t 1;3944: a 0 s 0 0 0 0 hln 100 GATE=A
t 1;3944: a 0 s 0 0 0 0 hln 100 PKGTYPE=DIP14
t 1;4066: a 0 s 0 0 0 0 hln 100 PKGREF=U5
t 1;4066: a 0 s 0 0 0 0 hln 100 PKGTYPE=DIP20
t 1;4067: a 0 s 0 0 0 0 hln 100 PKGREF=U6
t 1;4067: a 0 s 0 0 0 0 hln 100 PKGTYPE=DIP20
t 1;4068: a 0 s 0 0 0 0 hln 100 PKGREF=U7
t 1;4068: a 0 s 0 0 0 0 hln 100 PKGTYPE=DIP20
t 1;4069: a 0 s 0 0 0 0 hln 100 PKGREF=U8
t 1;4069: a 0 s 0 0 0 0 hln 100 PKGTYPE=DIP20
t 1;4072: a 0 s 0 0 0 0 hln 100 PKGREF=U9
t 1;4072: a 0 s 0 0 0 0 hln 100 PKGTYPE=DIP20
t 1;4073: a 0 s 0 0 0 0 hln 100 PKGREF=U10
t 1;4073: a 0 s 0 0 0 0 hln 100 PKGTYPE=DIP20
t 1;4074: a 0 s 0 0 0 0 hln 100 PKGREF=U11
t 1;4074: a 0 s 0 0 0 0 hln 100 PKGTYPE=DIP20
t 1;4075: a 0 s 0 0 0 0 hln 100 PKGREF=U12
t 1;4075: a 0 s 0 0 0 0 hln 100 PKGTYPE=DIP20
t 1;5719: a 0 s 0 0 0 0 hln 100 PKGREF=U13
t 1;5719: a 0 s 0 0 0 0 hln 100 PKGTYPE=DIP20
t 1;5720: a 0 s 0 0 0 0 hln 100 PKGREF=U14
t 1;5720: a 0 s 0 0 0 0 hln 100 PKGTYPE=DIP20
t 1;5721: a 0 s 0 0 0 0 hln 100 PKGREF=U15
t 1;5721: a 0 s 0 0 0 0 hln 100 PKGTYPE=DIP20
t 1;5722: a 0 s 0 0 0 0 hln 100 PKGREF=U16
t 1;5722: a 0 s 0 0 0 0 hln 100 PKGTYPE=DIP20
t 2;6068: a 0 s 0 0 0 0 hln 100 PKGREF=U20
t 2;6068: a 0 s 0 0 0 0 hln 100 GATE=A
t 2;6069: a 0 s 0 0 0 0 hln 100 PKGREF=U20
t 2;6069: a 0 s 0 0 0 0 hln 100 GATE=B
t 2;6070: a 0 s 0 0 0 0 hln 100 PKGREF=U20
t 2;6070: a 0 s 0 0 0 0 hln 100 GATE=C
t 2;6071: a 0 s 0 0 0 0 hln 100 PKGREF=U20
t 2;6071: a 0 s 0 0 0 0 hln 100 GATE=D
t 2;6072: a 0 s 0 0 0 0 hln 100 PKGREF=U17
t 2;6073: a 0 s 0 0 0 0 hln 100 PKGREF=U18
t 2;6074: a 0 s 0 0 0 0 hln 100 PKGREF=U21
t 2;6074: a 0 s 0 0 0 0 hln 100 GATE=A
t 2;6074: a 0 s 0 0 0 0 hln 100 PKGTYPE=DIP14
t 2;6075: a 0 s 0 0 0 0 hln 100 PKGREF=U19
t 2;6075: a 0 s 0 0 0 0 hln 100 GATE=B
t 2;6075: a 0 s 0 0 0 0 hln 100 PKGTYPE=DIP14
t 2;6076: a 0 s 0 0 0 0 hln 100 PKGREF=U19
t 2;6076: a 0 s 0 0 0 0 hln 100 GATE=C
t 2;6076: a 0 s 0 0 0 0 hln 100 PKGTYPE=DIP14
t 2;6077: a 0 s 0 0 0 0 hln 100 PKGREF=U22
t 2;6077: a 0 s 0 0 0 0 hln 100 GATE=A
t 2;6077: a 0 s 0 0 0 0 hln 100 PKGTYPE=DIP14
t 2;6078: a 0 s 0 0 0 0 hln 100 PKGREF=U19
t 2;6078: a 0 s 0 0 0 0 hln 100 GATE=D
t 2;6078: a 0 s 0 0 0 0 hln 100 PKGTYPE=DIP14
t 2;6079: a 0 s 0 0 0 0 hln 100 PKGREF=U19
t 2;6079: a 0 s 0 0 0 0 hln 100 GATE=E
t 2;6079: a 0 s 0 0 0 0 hln 100 PKGTYPE=DIP14
t 2;6080: a 0 s 0 0 0 0 hln 100 PKGREF=U19
t 2;6080: a 0 s 0 0 0 0 hln 100 GATE=F
t 2;6080: a 0 s 0 0 0 0 hln 100 PKGTYPE=DIP14
t 2;6081: a 0 s 0 0 0 0 hln 100 PKGREF=U23
t 2;6081: a 0 s 0 0 0 0 hln 100 GATE=A
t 2;6081: a 0 s 0 0 0 0 hln 100 PKGTYPE=DIP14
t 2;6082: a 0 s 0 0 0 0 hln 100 PKGREF=R1
@attributes
@translators
a 0 u 13 0 0 0 hln 100 PSPICE=DEFAULT
a 0 u 13 0 0 0 hln 100 PCBOARDS=PCB
a 0 u 13 0 0 0 hln 100 PADS=PCB
a 0 u 13 0 0 0 hln 100 PCAD=PCB
a 0 u 13 0 0 0 hln 100 TANGO=PCB
a 0 u 13 0 0 0 hln 100 CADSTAR=PCB
a 0 u 13 0 0 0 hln 100 EDIF=PCB
a 0 u 13 0 0 0 hln 100 SCICARDS=PCB
a 0 u 13 0 0 0 hln 100 POLARIS=PCB
a 0 u 13 0 0 0 hln 100 ORCAD=PCB
a 0 u 13 0 0 0 hln 100 PROTEL=PCB
@index
pageloc 1 0 53055 
pageloc 2 53055 6759 
@status
a 0 93:00:13:16:41:40;726943300 e 
p 0 95:02:15:09:53:53;795261233 e 
i PADS 93:04:04:17:57:04;736538224 e 0 
i PCBOARDS 95:02:14:16:11:01;795197461 e 0 
n 0 96:03:03:11:42:49;828531769 e 
s 0 96:03:03:11:42:57;828531777 e 
*page 1 0 970 720 iB
@ports
port 750 bubble 20 220 v
a 1 s 14 0 20 20 hcn 100 LABEL=CLK
port 4031 bubble 30 250 v
a 1 x 14 0 20 22 hcn 100 LABEL=S/L_1
port 4032 bubble 30 280 v
a 1 x 14 0 20 20 hcn 100 LABEL=S/L_0
port 4039 bubble 450 90 v
a 1 x 14 0 12 0 hcn 100 LABEL=OE_
port 4907 OFFPAGE 380 600 u
a 1 x 3 0 23 8 hcn 100 LABEL=IN20
port 4908 OFFPAGE 380 760 u
a 1 x 3 0 23 8 hcn 100 LABEL=IN31
port 4909 OFFPAGE 360 410 u
a 1 x 3 0 23 8 hcn 100 LABEL=IN10
port 4910 OFFPAGE 350 110 u
a 1 x 3 0 23 8 hcn 100 LABEL=IN0
port 4911 OFFPAGE 350 130 u
a 1 x 3 0 23 8 hcn 100 LABEL=IN1
port 4929 OFFPAGE 70 120 h
a 1 x 3 0 23 8 hcn 100 LABEL=SERIAL_IN
port 4934 OFFPAGE 560 50 u
a 1 x 3 0 23 8 hcn 100 LABEL=LATCH_EN
port 4969 offpage 200 240 u
a 1 x 3 0 23 8 hcn 100 LABEL=CLK
port 5379 OFFPAGE 70 90 h
a 1 x 3 0 23 8 hcn 100 LABEL=S/L_1
port 5380 OFFPAGE 70 60 h
a 1 x 3 0 23 8 hcn 100 LABEL=S/L_0
@parts
part 1965 EDGE62 910 110 H
a 0 s 0 0 0 30 hln 100 PART=EDGE62
a 0 s 0 0 0 0 hln 100 PKGTYPE=EDGE62
a 0 ap 0 0 0 0 hln 100 REFDES=P1A1
a 0 x 13 0 14 8 hln 100 PKGREF=P1
a 0 s 13 0 -10 16 hlb 100 GATE=A1
part 1966 EDGE62 910 120 H
a 0 s 0 0 0 30 hln 100 PART=EDGE62
a 0 s 0 0 0 0 hln 100 PKGTYPE=EDGE62
a 0 ap 0 0 0 0 hln 100 REFDES=P1A2
a 0 x 13 0 14 8 hln 100 PKGREF=P1
a 0 x 13 0 -10 16 hlb 100 GATE=A2
part 1967 EDGE62 910 130 H
a 0 s 0 0 0 30 hln 100 PART=EDGE62
a 0 s 0 0 0 0 hln 100 PKGTYPE=EDGE62
a 0 ap 0 0 0 0 hln 100 REFDES=P1A3
a 0 x 13 0 14 8 hln 100 PKGREF=P1
a 0 x 13 0 -10 16 hlb 100 GATE=A3
part 1968 EDGE62 910 140 H
a 0 s 0 0 0 30 hln 100 PART=EDGE62
a 0 s 0 0 0 0 hln 100 PKGTYPE=EDGE62
a 0 ap 0 0 0 0 hln 100 REFDES=P1A4
a 0 x 13 0 14 8 hln 100 PKGREF=P1
a 0 x 13 0 -10 16 hlb 100 GATE=A4
part 1969 EDGE62 910 170 H
a 0 s 0 0 0 30 hln 100 PART=EDGE62
a 0 s 0 0 0 0 hln 100 PKGTYPE=EDGE62
a 0 ap 0 0 0 0 hln 100 REFDES=P1A5
a 0 x 13 0 14 8 hln 100 PKGREF=P1
a 0 x 13 0 -10 16 hlb 100 GATE=A5
part 1970 EDGE62 910 180 H
a 0 s 0 0 0 30 hln 100 PART=EDGE62
a 0 s 0 0 0 0 hln 100 PKGTYPE=EDGE62
a 0 ap 0 0 0 0 hln 100 REFDES=P1A6
a 0 x 13 0 14 8 hln 100 PKGREF=P1
a 0 x 13 0 -10 16 hlb 100 GATE=A6
part 1971 EDGE62 910 190 H
a 0 s 0 0 0 30 hln 100 PART=EDGE62
a 0 s 0 0 0 0 hln 100 PKGTYPE=EDGE62
a 0 ap 0 0 0 0 hln 100 REFDES=P1A7
a 0 x 13 0 14 8 hln 100 PKGREF=P1
a 0 x 13 0 -10 16 hlb 100 GATE=A7
part 1972 EDGE62 910 200 H
a 0 s 0 0 0 30 hln 100 PART=EDGE62
a 0 s 0 0 0 0 hln 100 PKGTYPE=EDGE62
a 0 ap 0 0 0 0 hln 100 REFDES=P1A8
a 0 x 13 0 14 8 hln 100 PKGREF=P1
a 0 x 13 0 -10 16 hlb 100 GATE=A8
part 1973 EDGE62 910 290 H
a 0 s 0 0 0 30 hln 100 PART=EDGE62
a 0 s 0 0 0 0 hln 100 PKGTYPE=EDGE62
a 0 ap 0 0 0 0 hln 100 REFDES=P1A9
a 0 x 13 0 14 8 hln 100 PKGREF=P1
a 0 x 13 0 -10 16 hlb 100 GATE=A9
part 1974 EDGE62 910 300 H
a 0 s 0 0 0 30 hln 100 PART=EDGE62
a 0 s 0 0 0 0 hln 100 PKGTYPE=EDGE62
a 0 ap 0 0 0 0 hln 100 REFDES=P1A10
a 0 x 13 0 14 8 hln 100 PKGREF=P1
a 0 x 13 0 -10 16 hlb 100 GATE=A10
part 1975 EDGE62 910 310 H
a 0 s 0 0 0 30 hln 100 PART=EDGE62
a 0 s 0 0 0 0 hln 100 PKGTYPE=EDGE62
a 0 ap 0 0 0 0 hln 100 REFDES=P1A11
a 0 x 13 0 14 8 hln 100 PKGREF=P1
a 0 x 13 0 -10 16 hlb 100 GATE=A11
part 1976 EDGE62 910 320 H
a 0 s 0 0 0 30 hln 100 PART=EDGE62
a 0 s 0 0 0 0 hln 100 PKGTYPE=EDGE62
a 0 ap 0 0 0 0 hln 100 REFDES=P1A12
a 0 x 13 0 14 8 hln 100 PKGREF=P1
a 0 x 13 0 -10 16 hlb 100 GATE=A12
part 1977 EDGE62 910 350 H
a 0 s 0 0 0 30 hln 100 PART=EDGE62
a 0 s 0 0 0 0 hln 100 PKGTYPE=EDGE62
a 0 ap 0 0 0 0 hln 100 REFDES=P1A13
a 0 x 13 0 14 8 hln 100 PKGREF=P1
a 0 x 13 0 -10 16 hlb 100 GATE=A13
part 1978 EDGE62 910 360 H
a 0 s 0 0 0 30 hln 100 PART=EDGE62
a 0 s 0 0 0 0 hln 100 PKGTYPE=EDGE62
a 0 ap 0 0 0 0 hln 100 REFDES=P1A14
a 0 x 13 0 14 8 hln 100 PKGREF=P1
a 0 x 13 0 -10 16 hlb 100 GATE=A14
part 1979 EDGE62 910 370 H
a 0 s 0 0 0 30 hln 100 PART=EDGE62
a 0 s 0 0 0 0 hln 100 PKGTYPE=EDGE62
a 0 ap 0 0 0 0 hln 100 REFDES=P1A15
a 0 x 13 0 14 8 hln 100 PKGREF=P1
a 0 x 13 0 -10 16 hlb 100 GATE=A15
part 1980 EDGE62 910 380 H
a 0 s 0 0 0 30 hln 100 PART=EDGE62
a 0 s 0 0 0 0 hln 100 PKGTYPE=EDGE62
a 0 ap 0 0 0 0 hln 100 REFDES=P1A16
a 0 x 13 0 14 8 hln 100 PKGREF=P1
a 0 x 13 0 -10 16 hlb 100 GATE=A16
part 1981 EDGE62 910 480 H
a 0 s 0 0 0 30 hln 100 PART=EDGE62
a 0 s 0 0 0 0 hln 100 PKGTYPE=EDGE62
a 0 ap 0 0 0 0 hln 100 REFDES=P1A17
a 0 x 13 0 14 8 hln 100 PKGREF=P1
a 0 x 13 0 -10 16 hlb 100 GATE=B16
part 1982 EDGE62 910 490 H
a 0 s 0 0 0 30 hln 100 PART=EDGE62
a 0 s 0 0 0 0 hln 100 PKGTYPE=EDGE62
a 0 ap 0 0 0 0 hln 100 REFDES=P1A18
a 0 x 13 0 14 8 hln 100 PKGREF=P1
a 0 x 13 0 -10 16 hlb 100 GATE=B17
part 1983 EDGE62 910 500 H
a 0 s 0 0 0 30 hln 100 PART=EDGE62
a 0 s 0 0 0 0 hln 100 PKGTYPE=EDGE62
a 0 ap 0 0 0 0 hln 100 REFDES=P1A19
a 0 x 13 0 14 8 hln 100 PKGREF=P1
a 0 x 13 0 -10 16 hlb 100 GATE=B18
part 1984 EDGE62 910 510 H
a 0 s 0 0 0 30 hln 100 PART=EDGE62
a 0 s 0 0 0 0 hln 100 PKGTYPE=EDGE62
a 0 ap 0 0 0 0 hln 100 REFDES=P1A20
a 0 x 13 0 14 8 hln 100 PKGREF=P1
a 0 x 13 0 -10 16 hlb 100 GATE=B19
part 1985 EDGE62 910 540 H
a 0 s 0 0 0 30 hln 100 PART=EDGE62
a 0 s 0 0 0 0 hln 100 PKGTYPE=EDGE62
a 0 ap 0 0 0 0 hln 100 REFDES=P1A21
a 0 x 13 0 14 8 hln 100 PKGREF=P1
a 0 x 13 0 -10 16 hlb 100 GATE=B20
part 1986 EDGE62 910 550 H
a 0 s 0 0 0 30 hln 100 PART=EDGE62
a 0 s 0 0 0 0 hln 100 PKGTYPE=EDGE62
a 0 ap 0 0 0 0 hln 100 REFDES=P1A22
a 0 x 13 0 14 8 hln 100 PKGREF=P1
a 0 x 13 0 -10 16 hlb 100 GATE=B21
part 1987 EDGE62 910 560 H
a 0 s 0 0 0 30 hln 100 PART=EDGE62
a 0 s 0 0 0 0 hln 100 PKGTYPE=EDGE62
a 0 ap 0 0 0 0 hln 100 REFDES=P1A23
a 0 x 13 0 14 8 hln 100 PKGREF=P1
a 0 x 13 0 -10 16 hlb 100 GATE=B22
part 1988 EDGE62 910 570 H
a 0 s 0 0 0 30 hln 100 PART=EDGE62
a 0 s 0 0 0 0 hln 100 PKGTYPE=EDGE62
a 0 ap 0 0 0 0 hln 100 REFDES=P1A24
a 0 x 13 0 14 8 hln 100 PKGREF=P1
a 0 x 13 0 -10 16 hlb 100 GATE=B23
part 1989 EDGE62 910 660 H
a 0 s 0 0 0 30 hln 100 PART=EDGE62
a 0 s 0 0 0 0 hln 100 PKGTYPE=EDGE62
a 0 ap 0 0 0 0 hln 100 REFDES=P1A25
a 0 x 13 0 14 8 hln 100 PKGREF=P1
a 0 x 13 0 -10 16 hlb 100 GATE=B24
part 1990 EDGE62 910 670 H
a 0 s 0 0 0 30 hln 100 PART=EDGE62
a 0 s 0 0 0 0 hln 100 PKGTYPE=EDGE62
a 0 ap 0 0 0 0 hln 100 REFDES=P1A26
a 0 x 13 0 14 8 hln 100 PKGREF=P1
a 0 x 13 0 -10 16 hlb 100 GATE=B25
part 1991 EDGE62 910 680 H
a 0 s 0 0 0 30 hln 100 PART=EDGE62
a 0 s 0 0 0 0 hln 100 PKGTYPE=EDGE62
a 0 ap 0 0 0 0 hln 100 REFDES=P1A27
a 0 x 13 0 14 8 hln 100 PKGREF=P1
a 0 x 13 0 -10 16 hlb 100 GATE=B26
part 1992 EDGE62 910 690 H
a 0 s 0 0 0 30 hln 100 PART=EDGE62
a 0 s 0 0 0 0 hln 100 PKGTYPE=EDGE62
a 0 ap 0 0 0 0 hln 100 REFDES=P1A28
a 0 x 13 0 14 8 hln 100 PKGREF=P1
a 0 x 13 0 -10 16 hlb 100 GATE=B27
part 1993 EDGE62 910 720 H
a 0 s 0 0 0 30 hln 100 PART=EDGE62
a 0 s 0 0 0 0 hln 100 PKGTYPE=EDGE62
a 0 ap 0 0 0 0 hln 100 REFDES=P1A29
a 0 x 13 0 14 8 hln 100 PKGREF=P1
a 0 x 13 0 -10 16 hlb 100 GATE=B28
part 1994 EDGE62 910 730 H
a 0 s 0 0 0 30 hln 100 PART=EDGE62
a 0 s 0 0 0 0 hln 100 PKGTYPE=EDGE62
a 0 ap 0 0 0 0 hln 100 REFDES=P1A30
a 0 x 13 0 14 8 hln 100 PKGREF=P1
a 0 x 13 0 -10 16 hlb 100 GATE=B29
part 1995 EDGE62 910 740 H
a 0 s 0 0 0 30 hln 100 PART=EDGE62
a 0 s 0 0 0 0 hln 100 PKGTYPE=EDGE62
a 0 ap 0 0 0 0 hln 100 REFDES=P1A31
a 0 x 13 0 14 8 hln 100 PKGREF=P1
a 0 x 13 0 -10 16 hlb 100 GATE=B30
part 1996 EDGE62 910 750 H
a 0 s 0 0 0 30 hln 100 PART=EDGE62
a 0 s 0 0 0 0 hln 100 PKGTYPE=EDGE62
a 0 ap 0 0 0 0 hln 100 REFDES=P1B1
a 0 x 13 0 14 8 hln 100 PKGREF=P1
a 0 x 13 0 -10 16 hlb 100 GATE=B31
part 2541 74LS323 100 130 h
a 0 sp 11 0 36 130 hln 100 PART=74LS323
a 0 s 0 0 0 0 hln 100 GATE=
a 0 ap 9 0 40 -2 hln 100 REFDES=U1
a 0 a 0 0 0 0 hln 100 PKGREF=U1
part 2542 74LS323 100 310 h
a 0 sp 11 0 36 130 hln 100 PART=74LS323
a 0 s 0 0 0 0 hln 100 GATE=
a 0 ap 9 0 40 -2 hln 100 REFDES=U2
a 0 a 0 0 0 0 hln 100 PKGREF=U2
part 2543 74LS323 100 490 h
a 0 sp 11 0 36 130 hln 100 PART=74LS323
a 0 s 0 0 0 0 hln 100 GATE=
a 0 ap 9 0 40 -2 hln 100 REFDES=U3
a 0 a 0 0 0 0 hln 100 PKGREF=U3
part 2544 74LS323 100 670 h
a 0 sp 11 0 36 130 hln 100 PART=74LS323
a 0 s 0 0 0 0 hln 100 GATE=
a 0 ap 9 0 40 -2 hln 100 REFDES=U4
a 0 a 0 0 0 0 hln 100 PKGREF=U4
part 3944 74LS04 840 90 h
a 0 sp 11 0 40 32 hln 100 PART=74LS04
a 0 ap 9 0 40 10 hln 100 REFDES=U19A
a 0 a 0 0 0 0 hln 100 PKGREF=U5
a 0 s 0 0 0 0 hln 100 GATE=A
part 4066 74LS240 720 110 h
a 0 sp 11 0 38 130 hln 100 PART=74LS240
a 0 s 0 0 0 0 hln 100 GATE=
a 0 ap 9 0 40 -2 hln 100 REFDES=U5
a 0 x 0 0 0 0 hln 100 PKGREF=U30
part 4067 74LS240 720 290 h
a 0 sp 11 0 38 130 hln 100 PART=74LS240
a 0 s 0 0 0 0 hln 100 GATE=
a 0 ap 9 0 40 -2 hln 100 REFDES=U6
a 0 x 0 0 0 0 hln 100 PKGREF=U31
part 4068 74LS240 720 480 h
a 0 sp 11 0 38 130 hln 100 PART=74LS240
a 0 s 0 0 0 0 hln 100 GATE=
a 0 ap 9 0 40 -2 hln 100 REFDES=U7
a 0 x 0 0 0 0 hln 100 PKGREF=U32
part 4069 74LS240 720 660 h
a 0 sp 11 0 38 130 hln 100 PART=74LS240
a 0 s 0 0 0 0 hln 100 GATE=
a 0 ap 9 0 40 -2 hln 100 REFDES=U8
a 0 x 0 0 0 0 hln 100 PKGREF=U33
part 4072 74LS240 1040 660 h
a 0 sp 11 0 38 130 hln 100 PART=74LS240
a 0 s 0 0 0 0 hln 100 GATE=
a 0 ap 9 0 40 -2 hln 100 REFDES=U9
a 0 x 0 0 0 0 hln 100 PKGREF=U34
part 4073 74LS240 1040 480 h
a 0 sp 11 0 38 130 hln 100 PART=74LS240
a 0 s 0 0 0 0 hln 100 GATE=
a 0 ap 9 0 40 -2 hln 100 REFDES=U10
a 0 x 0 0 0 0 hln 100 PKGREF=U35
part 4074 74LS240 1040 290 h
a 0 sp 11 0 38 130 hln 100 PART=74LS240
a 0 s 0 0 0 0 hln 100 GATE=
a 0 ap 9 0 40 -2 hln 100 REFDES=U11
a 0 a 0 0 0 0 hln 100 PKGREF=U9
part 4075 74LS240 1040 110 h
a 0 sp 11 0 38 130 hln 100 PART=74LS240
a 0 s 0 0 0 0 hln 100 GATE=
a 0 ap 9 0 40 -2 hln 100 REFDES=U12
a 0 a 0 0 0 0 hln 100 PKGREF=U10
part 5719 74LS373 550 120 h
a 0 sp 11 0 40 10 hln 100 PART=74LS373
a 0 s 0 0 0 0 hln 100 GATE=
a 0 ap 9 0 40 -2 hln 100 REFDES=U13
a 0 x 0 0 0 0 hln 100 PKGREF=U43
part 5720 74LS373 550 300 h
a 0 sp 11 0 40 10 hln 100 PART=74LS373
a 0 s 0 0 0 0 hln 100 GATE=
a 0 ap 9 0 40 -2 hln 100 REFDES=U14
a 0 x 0 0 0 0 hln 100 PKGREF=U42
part 5721 74LS373 550 480 h
a 0 sp 11 0 40 10 hln 100 PART=74LS373
a 0 s 0 0 0 0 hln 100 GATE=
a 0 ap 9 0 40 -2 hln 100 REFDES=U15
a 0 x 0 0 0 0 hln 100 PKGREF=U41
part 5722 74LS373 550 660 h
a 0 sp 11 0 40 10 hln 100 PART=74LS373
a 0 s 0 0 0 0 hln 100 GATE=
a 0 ap 9 0 40 -2 hln 100 REFDES=U16
a 0 x 0 0 0 0 hln 100 PKGREF=U40
part 1997 TITLEBLK 1520 970 h
a 1 u 13 0 320 95 hrn 100 PageText=Page         of
a 1 s 13 0 350 10 hcn 100 PageSize=B
a 1 x 13 0 180 60 hcn 100 PageTitle=Layout and Simulation Example
a 1 s 13 0 300 95 hrn 100 PageNO=1
a 1 s 13 0 340 95 hrn 100 PageCount=2
@conn
w 2922
s 550 130 530 130 2921
s 530 670 550 670 2923
s 530 490 530 670 2925
s 550 490 530 490 2927
s 530 130 530 310 2931
s 530 310 530 490 2935
s 550 310 530 310 2933
s 530 130 530 50 2936
s 530 50 560 50 2938
w 2941
s 610 140 660 140 2940
s 660 140 660 120 2942
s 720 120 660 120 2944
w 2947
s 610 150 670 150 2946
s 670 150 670 130 2948
s 720 130 670 130 2950
w 2953
s 610 160 680 160 2952
s 680 160 680 140 2954
s 720 140 680 140 2956
w 2959
s 610 170 690 170 2958
s 690 170 690 150 2960
s 720 150 690 150 2962
w 2965
s 720 180 610 180 2964
w 2967
s 720 190 610 190 2966
w 2969
s 720 200 610 200 2968
w 2971
s 720 210 610 210 2970
w 2973
s 720 300 650 300 2972
s 650 300 650 320 2974
s 650 320 610 320 2976
w 2979
s 720 310 660 310 2978
s 660 310 660 330 2980
s 660 330 610 330 2982
w 2985
s 720 320 670 320 2984
s 670 320 670 340 2986
s 670 340 610 340 2988
w 2991
s 720 330 680 330 2990
s 680 330 680 350 2992
s 680 350 610 350 2994
w 2997
s 610 360 720 360 2996
w 2999
s 720 370 610 370 2998
w 3001
s 610 380 720 380 3000
w 3003
s 720 390 610 390 3002
w 3005
s 720 490 650 490 3004
s 650 490 650 500 3006
s 650 500 610 500 3008
w 3011
s 720 500 660 500 3010
s 660 500 660 510 3012
s 660 510 610 510 3014
w 3017
s 720 510 670 510 3016
s 670 510 670 520 3018
s 670 520 610 520 3020
w 3023
s 720 520 680 520 3022
s 680 520 680 530 3024
s 610 530 680 530 3026
w 3029
s 610 540 680 540 3028
s 680 540 680 550 3030
s 680 550 720 550 3032
w 3035
s 720 560 670 560 3034
s 670 560 670 550 3036
s 670 550 610 550 3038
w 3041
s 720 570 660 570 3040
s 660 570 660 560 3042
s 660 560 610 560 3044
w 3047
s 720 580 650 580 3046
s 650 580 650 570 3048
s 650 570 610 570 3050
w 3053
s 720 670 650 670 3052
s 650 670 650 680 3054
s 650 680 610 680 3056
w 3059
s 720 680 660 680 3058
s 660 680 660 690 3060
s 660 690 610 690 3062
w 3065
s 720 690 670 690 3064
s 670 690 670 700 3066
s 670 700 610 700 3068
w 3071
s 720 700 680 700 3070
s 680 700 680 710 3072
s 680 710 610 710 3074
w 3077
s 720 730 680 730 3076
s 680 730 680 720 3078
s 680 720 610 720 3080
w 3083
s 720 740 670 740 3082
s 670 740 670 730 3084
s 670 730 610 730 3086
w 3089
s 720 750 660 750 3088
s 660 750 660 740 3090
s 660 740 610 740 3092
w 3095
s 720 760 650 760 3094
s 650 760 650 750 3096
s 650 750 610 750 3098
w 3165
a 0 s 3 0 580 88 hln 100 LABEL=OE_
s 540 90 710 90 4945
a 0 s 3 0 580 88 hln 100 LABEL=OE_
s 450 90 540 90 4105
s 710 170 710 290 4096
s 710 290 720 290 3172
s 710 290 710 350 3174
s 710 110 710 170 3166
s 710 170 720 170 3168
s 710 350 720 350 3176
s 710 350 710 480 3178
s 720 110 710 110 3164
s 710 480 720 480 3180
s 710 480 710 540 3182
s 710 540 720 540 3184
s 710 540 710 660 3186
s 710 660 720 660 3188
s 710 660 710 720 3190
s 710 720 720 720 3192
s 710 90 710 110 4094
s 840 90 710 90 4098
s 550 120 540 120 3207
s 540 120 540 270 4029
s 540 270 90 270 4026
s 540 270 540 300 3952
s 550 300 540 300 3204
s 90 270 90 190 4030
s 540 300 540 480 3196
s 540 480 540 660 4940
s 550 480 540 480 3198
s 90 360 90 270 4941
s 90 360 100 360 4014
s 90 190 100 190 4018
s 90 190 90 180 4020
s 550 660 540 660 3194
s 90 540 90 370 4008
s 90 370 90 360 4942
s 90 370 100 370 4010
s 90 180 100 180 4022
s 90 540 100 540 4003
s 90 550 90 540 4943
s 100 550 90 550 4005
s 90 730 90 720 3997
s 90 720 90 550 4944
s 90 720 100 720 3999
s 100 730 90 730 3995
s 540 90 540 120 4935
w 3210
s 70 640 70 700 3215
s 70 700 100 700 3217
s 170 640 70 640 4474
s 170 580 170 640 4472
w 3222
s 70 460 70 520 3227
s 70 520 100 520 3229
s 170 460 70 460 4468
s 170 400 170 460 4466
w 3234
s 80 280 80 340 3239
s 80 340 100 340 3241
s 170 280 80 280 4086
s 170 220 170 280 4084
w 3886
a 0 s 0 0 70 218 hln 100 LABEL=CLK
s 100 220 40 220 3885
a 0 s 3 0 70 218 hln 100 LABEL=CLK
s 100 400 40 400 3887
s 40 400 40 260 3889
s 40 400 40 580 3892
s 40 580 100 580 3894
s 40 580 40 760 3896
s 40 760 100 760 3898
s 40 260 40 220 4972
s 40 260 200 260 4970
s 200 260 200 240 4973
s 40 220 20 220 6225
w 3968
s 100 680 60 680 3967
s 60 680 60 610 3969
s 60 500 100 500 3971
s 60 500 60 440 3973
s 60 320 100 320 3975
s 60 320 60 280 3977
s 60 140 90 140 3979
s 60 280 60 250 4038
s 30 280 60 280 4036
s 70 60 90 60 5381
s 90 140 100 140 5385
s 90 60 90 140 5383
s 130 430 130 440 5498
s 60 440 60 320 5502
s 130 440 60 440 5500
s 60 250 60 140 5506
s 130 250 60 250 5504
s 60 610 60 500 5509
s 130 610 60 610 5507
s 130 790 60 790 5511
s 60 790 60 680 5513
w 3982
s 100 130 80 130 3981
s 50 130 50 250 3983
s 50 310 100 310 3985
s 50 310 50 490 3987
s 50 490 100 490 3989
s 50 490 50 670 3991
s 50 670 100 670 3993
s 50 250 50 310 4035
s 30 250 50 250 4033
s 70 90 80 90 5386
s 80 130 50 130 5390
s 80 90 80 130 5388
w 4172
a 0 s 3 0 820 118 hln 100 LABEL=OUT0
s 860 120 880 120 6221
a 0 s 3 0 820 118 hln 100 LABEL=OUT0
s 780 120 860 120 6120
w 4177
a 0 s 3 0 820 128 hln 100 LABEL=OUT1
s 860 130 780 130 6218
a 0 s 3 0 820 128 hln 100 LABEL=OUT1
s 880 130 860 130 6122
w 4182
a 0 s 3 0 820 138 hln 100 LABEL=OUT2
s 860 140 880 140 6215
a 0 s 3 0 820 138 hln 100 LABEL=OUT2
s 780 140 860 140 6124
w 4187
a 0 s 3 0 820 148 hln 100 LABEL=OUT3
s 860 150 780 150 6212
a 0 s 3 0 820 148 hln 100 LABEL=OUT3
s 880 150 860 150 6126
w 4194
a 0 s 3 0 820 178 hln 100 LABEL=OUT4
s 860 180 880 180 6209
a 0 s 3 0 820 178 hln 100 LABEL=OUT4
s 780 180 860 180 6128
w 4199
a 0 s 3 0 820 188 hln 100 LABEL=OUT5
s 860 190 780 190 6206
a 0 s 3 0 820 188 hln 100 LABEL=OUT5
s 880 190 860 190 6130
w 4204
a 0 s 3 0 820 198 hln 100 LABEL=OUT6
s 860 200 880 200 6203
a 0 s 3 0 820 198 hln 100 LABEL=OUT6
s 780 200 860 200 6132
w 4209
a 0 s 3 0 820 208 hln 100 LABEL=OUT7
s 860 210 780 210 6200
a 0 s 3 0 820 208 hln 100 LABEL=OUT7
s 880 210 860 210 6134
w 4224
a 0 s 3 0 805 298 hln 100 LABEL=OUT8
s 860 300 880 300 5968
a 0 s 3 0 805 298 hln 100 LABEL=OUT8
s 780 300 860 300 4226
w 4229
a 0 s 3 0 805 308 hln 100 LABEL=OUT9
s 860 310 780 310 5969
a 0 s 3 0 805 308 hln 100 LABEL=OUT9
s 880 310 860 310 4228
w 4234
a 0 s 3 0 805 318 hln 100 LABEL=OUT10
s 860 320 880 320 5971
a 0 s 3 0 805 318 hln 100 LABEL=OUT10
s 780 320 860 320 4236
w 4239
a 0 s 3 0 805 328 hln 100 LABEL=OUT11
s 860 330 780 330 5973
a 0 s 3 0 805 328 hln 100 LABEL=OUT11
s 880 330 860 330 4238
w 4244
a 0 s 3 0 805 358 hln 100 LABEL=OUT12
s 860 360 880 360 5975
a 0 s 3 0 805 358 hln 100 LABEL=OUT12
s 780 360 860 360 4246
w 4249
a 0 s 3 0 805 368 hln 100 LABEL=OUT13
s 860 370 780 370 5977
a 0 s 3 0 805 368 hln 100 LABEL=OUT13
s 880 370 860 370 4248
w 4254
a 0 s 3 0 805 378 hln 100 LABEL=OUT14
s 860 380 880 380 5979
a 0 s 3 0 805 378 hln 100 LABEL=OUT14
s 780 380 860 380 4256
w 4259
a 0 s 3 0 805 388 hln 100 LABEL=OUT15
s 860 390 780 390 5966
a 0 s 3 0 805 388 hln 100 LABEL=OUT15
s 880 390 860 390 4258
w 4275
a 0 s 3 0 805 488 hln 100 LABEL=OUT16
s 860 490 880 490 5912
a 0 s 3 0 805 488 hln 100 LABEL=OUT16
s 780 490 860 490 4277
w 4280
a 0 s 3 0 805 498 hln 100 LABEL=OUT17
s 860 500 780 500 5913
a 0 s 3 0 805 498 hln 100 LABEL=OUT17
s 880 500 860 500 4279
w 4285
a 0 s 3 0 805 508 hln 100 LABEL=OUT18
s 860 510 880 510 5915
a 0 s 3 0 805 508 hln 100 LABEL=OUT18
s 780 510 860 510 4287
w 4290
a 0 s 3 0 805 518 hln 100 LABEL=OUT19
s 860 520 780 520 5917
a 0 s 3 0 805 518 hln 100 LABEL=OUT19
s 880 520 860 520 4289
w 4295
a 0 s 3 0 805 548 hln 100 LABEL=OUT20
s 860 550 880 550 5919
a 0 s 3 0 805 548 hln 100 LABEL=OUT20
s 780 550 860 550 4297
w 4300
a 0 s 3 0 805 558 hln 100 LABEL=OUT21
s 860 560 780 560 5921
a 0 s 3 0 805 558 hln 100 LABEL=OUT21
s 880 560 860 560 4299
w 4305
a 0 s 3 0 805 568 hln 100 LABEL=OUT22
s 860 570 880 570 5923
a 0 s 3 0 805 568 hln 100 LABEL=OUT22
s 780 570 860 570 4307
w 4310
a 0 s 3 0 805 578 hln 100 LABEL=OUT23
s 860 580 780 580 5910
a 0 s 3 0 805 578 hln 100 LABEL=OUT23
s 880 580 860 580 4309
w 4327
a 0 s 3 0 805 668 hln 100 LABEL=OUT24
s 860 670 880 670 5857
a 0 s 3 0 805 668 hln 100 LABEL=OUT24
s 780 670 860 670 4329
w 4332
a 0 s 3 0 805 678 hln 100 LABEL=OUT25
s 860 680 780 680 5858
a 0 s 3 0 805 678 hln 100 LABEL=OUT25
s 880 680 860 680 4331
w 4339
a 0 s 3 0 805 688 hln 100 LABEL=OUT26
s 860 690 880 690 5860
a 0 s 3 0 805 688 hln 100 LABEL=OUT26
s 780 690 860 690 4341
w 4344
a 0 s 3 0 805 698 hln 100 LABEL=OUT27
s 860 700 780 700 5862
a 0 s 3 0 805 698 hln 100 LABEL=OUT27
s 880 700 860 700 4343
w 4349
a 0 s 3 0 805 728 hln 100 LABEL=OUT28
s 860 730 880 730 5864
a 0 s 3 0 805 728 hln 100 LABEL=OUT28
s 780 730 860 730 4351
w 4354
a 0 s 3 0 805 738 hln 100 LABEL=OUT29
s 860 740 780 740 5866
a 0 s 3 0 805 738 hln 100 LABEL=OUT29
s 880 740 860 740 4353
w 4359
a 0 s 3 0 805 748 hln 100 LABEL=OUT30
s 860 750 880 750 5868
a 0 s 3 0 805 748 hln 100 LABEL=OUT30
s 780 750 860 750 4361
w 4364
a 0 s 3 0 805 758 hln 100 LABEL=OUT31
s 860 760 780 760 5855
a 0 s 3 0 805 758 hln 100 LABEL=OUT31
s 880 760 860 760 4363
w 4369
a 0 s 0 0 1015 758 hln 100 LABEL=OUT31
s 1040 760 990 760 4368
a 0 s 3 0 1003 758 hln 100 LABEL=OUT31
w 4372
a 0 s 0 0 1015 748 hln 100 LABEL=OUT30
s 1040 750 990 750 4371
a 0 s 3 0 1003 748 hln 100 LABEL=OUT30
w 4375
a 0 s 0 0 1015 738 hln 100 LABEL=OUT29
s 1040 740 990 740 4374
a 0 s 3 0 1003 738 hln 100 LABEL=OUT29
w 4378
a 0 s 0 0 1015 728 hln 100 LABEL=OUT28
s 1040 730 990 730 4377
a 0 s 3 0 1003 726 hln 100 LABEL=OUT28
w 4381
a 0 s 0 0 1015 698 hln 100 LABEL=OUT27
s 1040 700 990 700 4380
a 0 s 3 0 1003 698 hln 100 LABEL=OUT27
w 4384
a 0 s 0 0 1015 688 hln 100 LABEL=OUT26
s 1040 690 990 690 4383
a 0 s 3 0 1003 688 hln 100 LABEL=OUT26
w 4387
a 0 s 0 0 1015 678 hln 100 LABEL=OUT25
s 1040 680 990 680 4386
a 0 s 3 0 1003 678 hln 100 LABEL=OUT25
w 4390
a 0 s 0 0 1015 668 hln 100 LABEL=OUT24
s 1040 670 990 670 4389
a 0 s 3 0 1003 668 hln 100 LABEL=OUT24
w 4393
a 0 s 0 0 1015 578 hln 100 LABEL=OUT23
s 1040 580 990 580 4392
a 0 s 3 0 1005 578 hln 100 LABEL=OUT23
w 4396
a 0 s 0 0 1015 568 hln 100 LABEL=OUT22
s 1040 570 990 570 4395
a 0 s 3 0 1005 568 hln 100 LABEL=OUT22
w 4399
a 0 s 0 0 1015 558 hln 100 LABEL=OUT21
s 1040 560 990 560 4398
a 0 s 3 0 1005 558 hln 100 LABEL=OUT21
w 4402
a 0 s 0 0 1015 548 hln 100 LABEL=OUT20
s 1040 550 990 550 4401
a 0 s 3 0 1005 548 hln 100 LABEL=OUT20
w 4405
a 0 s 0 0 1015 518 hln 100 LABEL=OUT19
s 1040 520 990 520 4404
a 0 s 3 0 1005 518 hln 100 LABEL=OUT19
w 4408
a 0 s 0 0 1015 508 hln 100 LABEL=OUT18
s 1040 510 990 510 4407
a 0 s 3 0 1005 508 hln 100 LABEL=OUT18
w 4411
a 0 s 0 0 1015 498 hln 100 LABEL=OUT17
s 1040 500 990 500 4410
a 0 s 3 0 1005 498 hln 100 LABEL=OUT17
w 4414
a 0 s 0 0 1015 488 hln 100 LABEL=OUT16
s 1040 490 990 490 4413
a 0 s 3 0 1005 488 hln 100 LABEL=OUT16
w 4417
a 0 s 0 0 1015 388 hln 100 LABEL=OUT15
s 1040 390 990 390 4416
a 0 s 3 0 1001 388 hln 100 LABEL=OUT15
w 4420
a 0 s 0 0 1015 378 hln 100 LABEL=OUT14
s 1040 380 990 380 4419
a 0 s 3 0 1001 378 hln 100 LABEL=OUT14
w 4423
a 0 s 0 0 1015 368 hln 100 LABEL=OUT13
s 1040 370 990 370 4422
a 0 s 3 0 1001 368 hln 100 LABEL=OUT13
w 4426
a 0 s 0 0 1015 358 hln 100 LABEL=OUT12
s 1040 360 990 360 4425
a 0 s 3 0 1001 358 hln 100 LABEL=OUT12
w 4429
a 0 s 0 0 1015 328 hln 100 LABEL=OUT11
s 1040 330 990 330 4428
a 0 s 3 0 1001 328 hln 100 LABEL=OUT11
w 4432
a 0 s 0 0 1015 318 hln 100 LABEL=OUT10
s 1040 320 990 320 4431
a 0 s 3 0 1001 318 hln 100 LABEL=OUT10
w 4435
a 0 s 0 0 1015 308 hln 100 LABEL=OUT9
s 1040 310 990 310 4434
a 0 s 3 0 1001 308 hln 100 LABEL=OUT9
w 4438
a 0 s 0 0 1015 298 hln 100 LABEL=OUT8
s 1040 300 990 300 4437
a 0 s 3 0 1001 298 hln 100 LABEL=OUT8
w 4441
a 0 s 0 0 1015 208 hln 100 LABEL=OUT7
s 1040 210 990 210 4440
a 0 s 3 0 1001 208 hln 100 LABEL=OUT7
w 4444
a 0 s 0 0 1015 198 hln 100 LABEL=OUT6
s 1040 200 990 200 4443
a 0 s 3 0 1001 198 hln 100 LABEL=OUT6
w 4447
a 0 s 0 0 1015 188 hln 100 LABEL=OUT5
s 1040 190 990 190 4446
a 0 s 3 0 1001 188 hln 100 LABEL=OUT5