* S:\RELEASE\DCTR60\POLARIS\EXAMPLES\SIMEX\SIMEX.SCH - with Parasitics

* Schematics Version 6.0 - January 1994
* Mon Jan 31 09:24:36 1994


** Analysis setup **
.tran 1ns 200ns


* From [SCHEMATICS NETLIST] section of msim.ini:
.lib nom.lib

.INC "SIMEX.pnt"
.INC "SIMEX.pas"


.probe


.END
