*version 6.3 394700794
u 2084
U? 40
Q? 7
D? 7
R? 29
M? 2
V? 3
LIB? 2
C? 12
? 23
@libraries
@analysis
.TRAN 1 0 0 0
+0 .01
+1 .20
+2 0
+3 1m
.OPT 0 0 0 0 0 0 0 0 0 0 0 0 0 0 0
ABSTOL 1nA
CHGTOL 1pC
CPTIME 1.0meg
ITL1 80
ITL2 40
VNTOL 10uV
.PROBE 0 0 1 0 0 2
@targets
@attributes
@translators
a 0 u 13 0 0 0 hln 100 PSPICE=DEFAULT
a 0 u 13 0 0 0 hln 100 PCBOARDS=PCB
a 0 u 13 0 0 0 hln 100 CADSTAR=PCB
a 0 u 13 0 0 0 hln 100 EDIF=PCB
a 0 u 13 0 0 0 hln 100 ORCAD=PCB
a 0 u 13 0 0 0 hln 100 PADS=PCB
a 0 u 13 0 0 0 hln 100 PCAD=PCB
a 0 u 13 0 0 0 hln 100 PROTEL=PCB
a 0 u 13 0 0 0 hln 100 TANGO=PCB
a 0 u 13 0 0 0 hln 100 SCICARDS=PCB
a 0 u 13 0 0 0 hln 100 POLARIS=PCB
a 0 u 13 0 0 0 hln 100 PRINT=DEFAULT
@index
pageloc 1 0 33027 
@status
n 0 96:03:10:15:30:04;829175404 e 
s 2832 96:03:10:15:30:16;829175416 e 
c 96:03:10:15:47:00;829176420
*page 1 0 1520 970 iB
@ports
port 819 hi 100 140 d
a 1 s 14 0 15 -4 hln 100 LABEL=$D_HI
a 0 s 0 0 0 0 hln 100 PART=hi
port 821 lo 660 240 v
a 1 s 14 0 15 48 hln 100 LABEL=$D_LO
a 0 s 0 0 0 0 hln 100 PART=lo
port 823 AGND 1360 380 h
a 0 s 0 0 0 0 hln 100 PART=AGND
port 825 global 1250 120 u
a 14 s 14 0 23 22 hcn 100 LABEL=MTR_PWR
a 0 s 0 0 0 0 hln 100 PART=global
port 835 agnd 840 790 h
a 0 s 0 0 0 0 hln 100 PART=agnd
port 837 global 880 400 u
a 14 s 14 0 23 22 hcn 100 LABEL=MTR_PWR
a 0 s 0 0 0 0 hln 100 PART=global
port 1198 agnd 880 740 h
a 0 s 0 0 0 0 hln 100 PART=agnd
port 1204 agnd 800 410 h
a 0 s 0 0 0 0 hln 100 PART=agnd
port 1419 global 510 480 h
a 14 s 14 0 15 8 hcn 100 LABEL=COM
a 0 s 0 0 0 0 hln 100 PART=global
port 1431 hi 460 640 h
a 0 s 0 0 0 0 hln 100 PART=hi
port 1474 agnd 390 570 h
a 0 s 0 0 0 0 hln 100 PART=agnd
port 1553 global 1360 500 u
a 14 s 14 0 15 8 hcn 100 LABEL=Speed
a 0 s 0 0 0 0 hln 100 PART=global
port 1554 global 1360 460 u
a 14 s 14 0 15 8 hcn 100 LABEL=Angle
a 0 s 0 0 0 0 hln 100 PART=global
port 1580 agnd 790 520 h
a 0 s 0 0 0 0 hln 100 PART=agnd
port 1582 agnd 790 640 h
a 0 s 0 0 0 0 hln 100 PART=agnd
port 1584 agnd 790 750 h
a 0 s 0 0 0 0 hln 100 PART=agnd
port 1672 hi 290 470 V
a 1 s 14 0 17 4 hln 100 LABEL=$D_HI
a 0 s 0 0 0 0 hln 100 PART=hi
port 1674 agnd 320 410 H
a 0 s 0 0 0 0 hln 100 PART=agnd
@parts
part 620 74ls107a 110 160 h
a 0 s 11 0 40 80 hln 100 PART=74ls107a
a 1 ap 9 0 40 -2 hln 100 REFDES=U1
a 0 s 0 0 0 0 hln 100 PKGREF=U1
part 627 74ls107a 300 160 h
a 0 s 11 0 40 80 hln 100 PART=74ls107a
a 1 ap 9 0 40 -2 hln 100 REFDES=U2
a 0 s 0 0 0 0 hln 100 PKGREF=U2
part 634 74ls107a 540 160 h
a 0 s 11 0 40 80 hln 100 PART=74ls107a
a 1 ap 9 0 40 -2 hln 100 REFDES=U3
a 0 s 0 0 0 0 hln 100 PKGREF=U3
part 641 74ls08 200 150 h
a 0 sp 11 0 40 50 hln 100 PART=74ls08
a 0 ap 9 0 40 0 hln 100 REFDES=U4
a 0 s 0 0 0 0 hln 100 PKGREF=U4
part 645 74ls08 200 210 h
a 0 sp 11 0 40 50 hln 100 PART=74ls08
a 0 ap 9 0 40 0 hln 100 REFDES=U5
a 0 s 0 0 0 0 hln 100 PKGREF=U5
part 649 74ls08 420 150 h
a 0 sp 11 0 40 50 hln 100 PART=74ls08
a 0 ap 9 0 40 0 hln 100 REFDES=U6
a 0 s 0 0 0 0 hln 100 PKGREF=U6
part 653 74ls08 420 210 h
a 0 sp 11 0 40 50 hln 100 PART=74ls08
a 0 ap 9 0 40 0 hln 100 REFDES=U7
a 0 s 0 0 0 0 hln 100 PKGREF=U7
part 657 74ls05 890 130 h
a 0 sp 11 0 40 40 hln 100 PART=74ls05
a 0 ap 9 0 40 10 hln 100 REFDES=U8
a 0 s 0 0 0 0 hln 100 PKGREF=U8
part 660 74ls05 890 210 h
a 0 sp 11 0 40 40 hln 100 PART=74ls05
a 0 ap 9 0 40 10 hln 100 REFDES=U9
a 0 s 0 0 0 0 hln 100 PKGREF=U9
part 663 74ls05 890 290 h
a 0 sp 11 0 40 40 hln 100 PART=74ls05
a 0 ap 9 0 40 10 hln 100 REFDES=U10
a 0 s 0 0 0 0 hln 100 PKGREF=U10
part 666 mje3055 1120 330 h
a 0 sp 13 0 -15 42 hln 100 PART=mje3055
a 0 ap 9 0 5 5 hln 100 refdes=Q1
a 0 s 0 0 0 0 hln 100 PKGREF=Q1
part 670 mje3055 1240 330 h
a 0 sp 13 0 -13 42 hln 100 PART=mje3055
a 0 ap 9 0 5 5 hln 100 refdes=Q2
a 0 s 0 0 0 0 hln 100 PKGREF=Q2
part 674 mje3055 1360 330 h
a 0 sp 13 0 -17 40 hln 100 PART=mje3055
a 0 ap 9 0 5 5 hln 100 refdes=Q3
a 0 s 0 0 0 0 hln 100 PKGREF=Q3
part 678 mje2955 1120 210 U
a 0 sp 13 0 17 6 hln 100 PART=mje2955
a 0 ap 9 0 17 41 hln 100 refdes=Q4
a 0 s 0 0 0 0 hln 100 PKGREF=Q4
part 682 mje2955 1240 210 U
a 0 sp 13 0 15 6 hln 100 PART=mje2955
a 0 ap 9 0 15 41 hln 100 refdes=Q5
a 0 s 0 0 0 0 hln 100 PKGREF=Q5
part 686 mje2955 1360 210 U
a 0 sp 13 0 15 6 hln 100 PART=mje2955
a 0 ap 9 0 15 41 hln 100 refdes=Q6
a 0 s 0 0 0 0 hln 100 PKGREF=Q6
part 690 D1N4009 1160 220 v
a 0 sp 13 0 -1 51 hln 100 PART=D1N4009
a 0 ap 9 0 11 26 hln 100 refdes=D1
a 0 s 0 0 0 0 hln 100 PKGREF=D1
part 693 D1N4009 1280 220 v
a 0 sp 13 0 -1 53 hln 100 PART=D1N4009
a 0 ap 9 0 11 28 hln 100 refdes=D2
a 0 s 0 0 0 0 hln 100 PKGREF=D2
part 696 D1N4009 1400 220 v
a 0 sp 13 0 -3 51 hln 100 PART=D1N4009
a 0 ap 9 0 11 30 hln 100 refdes=D3
a 0 s 0 0 0 0 hln 100 PKGREF=D3
part 699 D1N4009 1280 350 v
a 0 sp 13 0 41 37 hln 100 PART=D1N4009
a 0 ap 9 0 13 26 hln 100 refdes=D4
a 0 s 0 0 0 0 hln 100 PKGREF=D4
part 702 D1N4009 1400 350 v
a 0 sp 13 0 23 51 hln 100 PART=D1N4009
a 0 ap 9 0 11 26 hln 100 refdes=D5
a 0 s 0 0 0 0 hln 100 PKGREF=D5
part 705 D1N4009 1160 350 v
a 0 sp 13 0 31 51 hln 100 PART=D1N4009
a 0 ap 9 0 11 28 hln 100 refdes=D6
a 0 s 0 0 0 0 hln 100 PKGREF=D6
part 708 r 1100 210 v
a 0 s 0 0 0 0 hln 100 PART=r
a 0 ap 9 0 27 26 hln 100 REFDES=R1
a 0 s 0 0 0 0 hln 100 PKGREF=R1
part 712 r 1220 210 v
a 0 s 0 0 0 0 hln 100 PART=r
a 0 ap 9 0 15 0 hln 100 REFDES=R2
a 0 s 0 0 0 0 hln 100 PKGREF=R2
part 715 r 1340 210 v
a 0 s 0 0 0 0 hln 100 PART=r
a 0 ap 9 0 15 0 hln 100 REFDES=R3
a 0 s 0 0 0 0 hln 100 PKGREF=R3
part 718 bldcmtr 1350 500 u
a 0 s 0 0 0 20 hlb 100 PART=bldcmtr_wye
a 1 ap 0 0 0 10 hlb 100 REFDES=M1
a 0 u 0 0 0 70 hlb 100 Capacitance=.1PF
a 0 s 0 0 0 0 hln 100 PKGREF=M1
part 751 VSRC 840 740 h
a 1 u 0 0 0 0 hcn 100 DC=12
a 0 s 0 0 0 0 hln 100 PART=VSRC
a 1 ap 9 0 20 10 hcn 100 refdes=V1
a 0 s 0 0 0 0 hln 100 PKGREF=V1
part 754 74ls00 810 200 h
a 0 sp 11 0 40 50 hln 100 PART=74ls00
a 0 ap 9 0 40 0 hln 100 REFDES=U15
a 0 s 0 0 0 0 hln 100 PKGREF=U15
part 758 74ls00 810 280 h
a 0 sp 11 0 40 50 hln 100 PART=74ls00
a 0 ap 9 0 40 0 hln 100 REFDES=U16
a 0 s 0 0 0 0 hln 100 PKGREF=U16
part 766 r 1020 130 h
a 0 u 13 0 15 25 hln 100 value=330
a 0 s 0 0 0 0 hln 100 PART=r
a 0 ap 9 0 15 0 hln 100 REFDES=R6
a 0 s 0 0 0 0 hln 100 PKGREF=R6
part 769 r 1060 240 h
a 0 u 13 0 15 3 hln 100 value=330
a 0 s 0 0 0 0 hln 100 PART=r
a 0 ap 9 0 1 6 hln 100 REFDES=R7
a 0 s 0 0 0 0 hln 100 PKGREF=R7
part 772 r 1060 250 h
a 0 u 13 0 15 21 hln 100 value=330
a 0 s 0 0 0 0 hln 100 PART=r
a 0 ap 9 0 1 18 hln 100 REFDES=R8
a 0 s 0 0 0 0 hln 100 PKGREF=R8
part 775 r 1030 330 h
a 0 u 13 0 15 23 hln 100 value=150
a 0 s 0 0 0 0 hln 100 PART=r
a 0 ap 9 0 33 6 hln 100 REFDES=R9
a 0 s 0 0 0 0 hln 100 PKGREF=R9
part 778 r 1030 380 h
a 0 u 13 0 15 25 hln 100 value=150
a 0 s 0 0 0 0 hln 100 PART=r
a 0 ap 9 0 15 0 hln 100 REFDES=R10
a 0 s 0 0 0 0 hln 100 PKGREF=R10
part 782 74ls00 810 120 h
a 0 sp 11 0 40 50 hln 100 PART=74ls00
a 0 ap 9 0 40 0 hln 100 REFDES=U18
a 0 s 0 0 0 0 hln 100 PKGREF=U18
part 794 r 1030 300 h
a 0 u 13 0 15 23 hln 100 value=150
a 0 s 0 0 0 0 hln 100 PART=r
a 0 ap 9 0 31 6 hln 100 REFDES=R11
a 0 s 0 0 0 0 hln 100 PKGREF=R11
part 1104 r 1010 490 h
a 0 s 0 0 0 0 hln 100 PART=r
a 0 ap 9 0 15 0 hln 100 REFDES=R15
a 0 s 0 0 0 0 hln 100 PKGREF=R15
part 1105 r 1010 610 h
a 0 s 0 0 0 0 hln 100 PART=r
a 0 ap 9 0 15 0 hln 100 REFDES=R16
a 0 s 0 0 0 0 hln 100 PKGREF=R16
part 1106 r 1010 720 h
a 0 s 0 0 0 0 hln 100 PART=r
a 0 ap 9 0 15 0 hln 100 REFDES=R17
a 0 s 0 0 0 0 hln 100 PKGREF=R17
part 1107 r 1010 450 h
a 0 u 13 0 15 25 hln 100 value=100
a 0 s 0 0 0 0 hln 100 PART=r
a 0 ap 9 0 15 0 hln 100 REFDES=R18
a 0 s 0 0 0 0 hln 100 PKGREF=R18
part 1108 r 1010 570 h
a 0 u 13 0 15 25 hln 100 value=100
a 0 s 0 0 0 0 hln 100 PART=r
a 0 ap 9 0 15 0 hln 100 REFDES=R19
a 0 s 0 0 0 0 hln 100 PKGREF=R19
part 1109 r 1010 680 h
a 0 u 13 0 15 25 hln 100 value=100
a 0 s 0 0 0 0 hln 100 PART=r
a 0 ap 9 0 15 0 hln 100 REFDES=R20
a 0 s 0 0 0 0 hln 100 PKGREF=R20
part 1200 VSRC 800 370 h
a 1 u 0 0 0 0 hcn 100 DC=5V
a 0 s 0 0 0 0 hln 100 PART=VSRC
a 1 ap 9 0 20 10 hcn 100 refdes=V2
a 0 s 0 0 0 0 hln 100 PKGREF=V2
part 1209 r 830 470 v
a 0 s 0 0 0 0 hln 100 PART=r
a 0 ap 9 0 15 0 hln 100 REFDES=R21
a 0 u 13 0 15 25 hln 100 value=2k
a 0 s 0 0 0 0 hln 100 PKGREF=R21
part 1211 r 830 590 v
a 0 s 0 0 0 0 hln 100 PART=r
a 0 ap 9 0 15 0 hln 100 REFDES=R22
a 0 u 13 0 15 25 hln 100 value=2k
a 0 s 0 0 0 0 hln 100 PKGREF=R22
part 1212 r 820 700 v
a 0 s 0 0 0 0 hln 100 PART=r
a 0 ap 9 0 15 0 hln 100 REFDES=R23
a 0 u 13 0 15 25 hln 100 value=2k
a 0 s 0 0 0 0 hln 100 PKGREF=R23
part 1213 r 920 520 h
a 0 u 13 0 15 25 hln 100 value=30k
a 0 s 0 0 0 0 hln 100 PART=r
a 0 ap 9 0 15 0 hln 100 REFDES=R24
a 0 s 0 0 0 0 hln 100 PKGREF=R24
part 1214 r 920 640 h
a 0 u 13 0 15 25 hln 100 value=30k
a 0 s 0 0 0 0 hln 100 PART=r
a 0 ap 9 0 15 0 hln 100 REFDES=R25
a 0 s 0 0 0 0 hln 100 PKGREF=R25
part 1215 r 920 750 h
a 0 u 13 0 15 25 hln 100 value=30k
a 0 s 0 0 0 0 hln 100 PART=r
a 0 ap 9 0 15 0 hln 100 REFDES=R26
a 0 s 0 0 0 0 hln 100 PKGREF=R26
part 1299 74ls04 780 470 H
a 0 sp 11 0 40 40 hln 100 PART=74ls04
a 0 ap 9 0 40 10 hln 100 REFDES=U24
a 0 s 0 0 0 0 hln 100 PKGREF=U24
part 1300 74ls04 780 590 H
a 0 sp 11 0 40 40 hln 100 PART=74ls04
a 0 ap 9 0 40 10 hln 100 REFDES=U25
a 0 s 0 0 0 0 hln 100 PKGREF=U25
part 1301 74ls04 780 700 H
a 0 sp 11 0 40 40 hln 100 PART=74ls04
a 0 ap 9 0 40 10 hln 100 REFDES=U26
a 0 s 0 0 0 0 hln 100 PKGREF=U26
part 1302 74ls04 710 650 H
a 0 sp 11 0 28 44 hln 100 PART=74ls04
a 0 ap 9 0 40 10 hln 100 REFDES=U27
a 0 s 0 0 0 0 hln 100 PKGREF=U27
part 1303 74ls04 710 530 H
a 0 sp 11 0 26 40 hln 100 PART=74ls04
a 0 ap 9 0 40 10 hln 100 REFDES=U28
a 0 s 0 0 0 0 hln 100 PKGREF=U28
part 1304 74ls04 710 430 H
a 0 sp 11 0 26 40 hln 100 PART=74ls04
a 0 ap 9 0 40 10 hln 100 REFDES=U29
a 0 s 0 0 0 0 hln 100 PKGREF=U29
part 1305 74ls151 600 510 u
a 0 s 11 0 40 160 hln 100 PART=74ls151
a 1 ap 13 0 40 -2 hln 100 REFDES=U30
a 0 s 0 0 0 0 hln 100 PKGREF=U30
part 1421 74ls123 430 550 h
a 0 u 0 0 0 0 hln 100 PULSE=300us
a 0 s 11 0 42 78 hln 100 PART=74ls123
a 1 ap 13 0 40 -2 hln 100 REFDES=U32
a 0 s 0 0 0 0 hln 100 PKGREF=U32
part 1429 r 390 510 v
a 0 s 0 0 0 0 hln 100 PART=r
a 0 ap 9 0 15 0 hln 100 REFDES=R27
a 0 s 0 0 0 0 hln 100 PKGREF=R27
part 1430 c 390 560 v
a 0 s 0 0 0 0 hln 100 PART=c
a 0 ap 9 0 15 0 hln 100 REFDES=C7
a 0 s 0 0 0 0 hln 100 PKGREF=C7
part 1577 c 790 520 v
a 0 s 0 0 0 0 hln 100 PART=c
a 0 ap 9 0 15 0 hln 100 REFDES=C8
a 0 s 0 0 0 0 hln 100 PKGREF=C8
part 1578 c 790 640 v
a 0 s 0 0 0 0 hln 100 PART=c
a 0 ap 9 0 15 0 hln 100 REFDES=C9
a 0 s 0 0 0 0 hln 100 PKGREF=C9
part 1579 c 790 750 v
a 0 s 0 0 0 0 hln 100 PART=c
a 0 ap 9 0 15 0 hln 100 REFDES=C10
a 0 s 0 0 0 0 hln 100 PKGREF=C10
part 1656 74ls123 280 390 H
a 0 u 0 0 0 0 hln 100 PULSE=1ms
a 0 s 11 0 42 78 hln 100 PART=74ls123
a 1 ap 13 0 40 -2 hln 100 REFDES=U33
a 0 s 0 0 0 0 hln 100 PKGREF=U33
part 1663 r 320 350 V
a 0 s 0 0 0 0 hln 100 PART=r
a 0 ap 9 0 15 32 hln 100 REFDES=R28
a 0 u 13 0 15 47 hln 100 VALUE=1k
a 0 s 0 0 0 0 hln 100 PKGREF=R28
part 1665 c 320 400 V
a 0 s 0 0 0 0 hln 100 PART=c
a 0 ap 9 0 15 32 hln 100 REFDES=C11
a 0 u 13 0 15 47 hln 100 VALUE=1n
a 0 s 0 0 0 0 hln 100 PKGREF=C11
part 1759 74ls32 150 360 v
a 0 sp 11 0 52 62 hln 100 PART=74ls32
a 0 ap 9 0 40 0 hln 100 REFDES=U34
a 0 s 0 0 0 0 hln 100 PKGREF=U34
part 1781 74ls10 930 160 h
a 0 sp 11 0 40 50 hln 100 PART=74ls10
a 0 ap 9 0 40 0 hln 100 REFDES=U36
a 0 s 0 0 0 0 hln 100 PKGREF=U36
part 1785 74ls10 930 240 h
a 0 sp 11 0 40 50 hln 100 PART=74ls10
a 0 ap 9 0 40 0 hln 100 REFDES=U37
a 0 s 0 0 0 0 hln 100 PKGREF=U37
part 1789 74ls10 930 320 h
a 0 sp 11 0 40 50 hln 100 PART=74ls10
a 0 ap 9 0 40 0 hln 100 REFDES=U38
a 0 s 0 0 0 0 hln 100 PKGREF=U38
part 736 74ls138 670 150 h
a 0 x 11 0 12 100 hln 100 PART=decod
a 0 ap 13 0 40 -2 hln 100 REFDES=U14
a 0 s 0 0 0 0 hln 100 PKGREF=U14
a 0 sp 0 0 38 100 hln 100 MODEL=decod
part 1103 lm139 980 720 u
a 0 s 13 0 58 52 hcn 100 PART=lm139
a 0 ap 13 0 50 10 hcn 100 refdes=U23
a 0 s 0 0 0 0 hln 100 PKGREF=U23
part 1102 lm139 980 610 u
a 0 s 13 0 60 50 hcn 100 PART=lm139
a 0 ap 13 0 50 10 hcn 100 refdes=U22
a 0 s 0 0 0 0 hln 100 PKGREF=U22
part 1101 lm139 980 490 u
a 0 s 13 0 60 52 hcn 100 PART=lm139
a 0 ap 13 0 50 10 hcn 100 refdes=U21
a 0 s 0 0 0 0 hln 100 PKGREF=U21
part 724 FileStim 600 280 h
a 0 u 0 0 0 0 hcn 100 FileName=motor.stm
a 0 u 0 0 0 0 hcn 100 SigName=enable
a 0 s 0 0 0 0 hln 100 PART=FileStim
a 1 ap 9 0 8 -3 hcn 100 refdes=U11
a 0 s 0 0 0 0 hln 100 PKGREF=U11
part 728 FileStim 80 260 h
a 0 u 0 0 0 0 hcn 100 FileName=motor.stm
a 0 u 0 0 0 0 hcn 100 SigName=clear
a 0 s 0 0 0 0 hln 100 PART=FileStim
a 1 ap 9 0 8 -5 hcn 100 refdes=U13
a 0 s 0 0 0 0 hln 100 PKGREF=U13
part 726 FileStim 80 380 h
a 0 u 0 0 0 0 hcn 100 FileName=motor.stm
a 0 u 0 0 0 0 hcn 100 SigName=count
a 0 s 0 0 0 0 hln 100 PART=FileStim
a 1 ap 9 0 8 -3 hcn 100 refdes=U12
a 0 s 0 0 0 0 hln 100 PKGREF=U12
part 1771 FileStim 80 480 h
a 0 u 0 0 0 0 hcn 100 FileName=motor.stm
a 0 u 0 0 0 0 hcn 100 SigName=RUN
a 0 s 0 0 0 0 hln 100 PART=FileStim
a 1 ap 9 0 8 -5 hcn 100 refdes=U35
a 0 s 0 0 0 0 hln 100 PKGREF=U35
part 1805 filestim 600 330 h
a 0 u 0 0 0 0 hcn 100 FileName=motor.stm
a 0 u 0 0 0 0 hcn 100 SigName=brake
a 0 s 0 0 0 0 hln 100 PART=filestim
a 1 ap 9 0 8 -3 hcn 100 refdes=U39
a 0 s 0 0 0 0 hln 100 PKGREF=U39
part 2044 NoConnect 500 580 h
a 0 s 0 0 0 10 hlb 100 PART=NoConnect
a 0 s 0 0 0 0 hln 100 PKGREF=
part 2045 NoConnect 210 420 h
a 0 s 0 0 0 10 hlb 100 PART=NoConnect
a 0 s 0 0 0 0 hln 100 PKGREF=
part 2046 NoConnect 730 210 h
a 0 s 0 0 0 10 hlb 100 PART=NoConnect
a 0 s 0 0 0 0 hln 100 PKGREF=
part 2047 NoConnect 730 220 h
a 0 s 0 0 0 10 hlb 100 PART=NoConnect
a 0 s 0 0 0 0 hln 100 PKGREF=
part 2048 NoConnect 170 190 h
a 0 s 0 0 0 10 hlb 100 PART=NoConnect
a 0 s 0 0 0 0 hln 100 PKGREF=
part 2049 NoConnect 360 190 h
a 0 s 0 0 0 10 hlb 100 PART=NoConnect
a 0 s 0 0 0 0 hln 100 PKGREF=
@conn
w 3
s 270 160 300 160 2
w 6
s 270 220 290 220 5
s 290 220 290 200 8
s 290 200 300 200 10
w 13
a 0 s 3 0 645 178 hln 100 LABEL=C1
s 640 180 670 180 39
a 0 s 3 0 629 164 hln 100 LABEL=C1
s 360 170 380 170 12
s 380 170 420 170 24
s 380 250 190 250 17
s 190 250 190 230 20
s 190 230 200 230 22
s 380 170 380 190 27
s 380 190 380 250 30
s 380 190 500 190 29
s 500 190 500 140 33
s 500 140 640 140 35
s 640 140 640 180 37
s 640 180 630 180 1312
s 630 180 630 390 1314
s 630 390 600 390 1994
w 42
s 200 150 190 150 41
s 190 150 190 130 44
s 190 130 610 130 46
s 610 130 610 190 48
s 610 190 600 190 50
w 53
s 490 160 540 160 52
w 56
a 0 s 3 0 645 188 hln 100 LABEL=C2
s 620 190 670 190 69
a 0 s 3 0 635 196 hln 100 LABEL=C2
s 600 170 620 170 55
s 620 250 410 250 60
s 410 250 410 230 63
s 410 230 420 230 65
s 620 170 620 190 67
s 620 190 620 250 70
s 620 250 620 380 1308
s 620 380 600 380 1991
w 74
s 490 220 510 220 73
s 510 220 510 200 76
s 510 200 540 200 78
w 81
a 0 s 3 0 110 258 hln 100 LABEL=Clear
s 80 260 140 260 92
a 0 s 3 0 110 258 hln 100 LABEL=Clear
s 330 260 330 230 80
s 330 260 570 260 83
s 570 260 570 230 85
s 140 260 330 260 87
s 140 230 140 260 90
w 96
a 0 s 3 0 185 268 hln 100 LABEL=Count
s 160 270 280 270 1779
a 0 s 3 0 185 268 hln 100 LABEL=Count
s 280 270 280 180 95
s 280 180 300 180 98
s 280 270 410 270 100
s 530 270 530 180 102
s 530 180 540 180 104
s 90 270 160 270 109
s 110 180 90 180 106
s 90 180 90 270 117
s 430 580 410 580 1611
s 410 270 530 270 1613
s 410 580 410 270 1612
s 160 290 160 270 1777
w 121
s 110 200 100 200 120
s 100 200 100 160 125
s 100 160 100 140 128
s 100 160 110 160 127
w 132
a 0 s 3 0 765 148 hln 100 LABEL=P0
s 730 150 800 150 141
a 0 s 3 0 765 148 hln 100 LABEL=P0
s 800 140 810 140 131
s 800 160 930 160 136
s 800 140 800 150 139
s 800 150 800 160 142
w 146
a 0 s 3 0 760 158 hln 100 LABEL=P1
s 730 160 790 160 157
a 0 s 3 0 760 158 hln 100 LABEL=P1
s 790 200 810 200 145
s 790 160 790 180 151
s 790 180 790 200 154
s 790 180 930 180 153
w 160
a 0 s 3 0 755 168 hln 100 LABEL=P2
s 730 170 780 170 169
a 0 s 3 0 755 168 hln 100 LABEL=P2
s 780 170 780 220 159
s 780 220 810 220 162
s 780 220 780 240 164
s 780 240 930 240 167
w 172
a 0 s 3 0 750 178 hln 100 LABEL=P3
s 730 180 770 180 183
a 0 s 3 0 750 178 hln 100 LABEL=P3
s 770 280 810 280 171
s 770 180 770 260 177
s 770 260 770 280 180
s 770 260 930 260 179
w 186
a 0 s 3 0 745 188 hln 100 LABEL=P4
s 730 190 760 190 195
a 0 s 3 0 745 188 hln 100 LABEL=P4
s 760 190 760 300 185
s 760 300 810 300 188
s 760 300 760 320 190
s 760 320 930 320 193
w 198
a 0 s 3 0 740 198 hln 100 LABEL=P5
s 750 200 730 200 206
a 0 s 3 0 740 198 hln 100 LABEL=P5
s 750 340 930 340 200
s 750 340 750 200 202
s 750 120 810 120 204
s 750 200 750 120 207
w 211
s 880 130 890 130 210
w 214
s 880 210 890 210 213
w 217
s 880 290 890 290 216
w 220
s 1220 210 1240 210 219
s 1220 240 1220 210 222
s 1100 240 1220 240 230
w 258
s 1340 210 1360 210 257
s 1340 250 1340 210 260
s 1100 250 1340 250 268
w 271
s 1070 380 1190 380 270
s 1190 380 1190 330 273
s 1190 330 1240 330 811
w 305
a 0 s 3 0 602 278 hln 100 LABEL=Enable
s 600 280 640 280 307
a 0 s 3 0 590 274 hln 100 LABEL=Enable
s 640 210 640 280 304
s 670 210 640 210 309
w 342
a 0 s 3 0 652 166 hln 100 LABEL=C0
s 650 170 670 170 374
a 0 s 3 0 650 146 hln 100 LABEL=C0
s 180 120 410 120 344
s 410 120 650 120 347
s 410 120 410 150 346
s 180 170 180 120 350
s 410 150 420 150 352
s 410 150 410 210 354
s 170 170 180 170 359
s 410 210 420 210 362
s 180 170 190 170 364
s 190 170 200 170 367
s 190 170 190 210 366
s 190 210 200 210 370
s 650 120 650 170 372
s 650 170 650 400 1317
s 650 400 600 400 2014
w 377
s 670 150 660 150 376
s 660 150 660 220 381
s 660 220 660 240 384
s 670 220 660 220 383
w 405
s 1050 240 1060 240 404
s 1050 210 1050 240 407
s 940 210 1050 210 409
w 412
s 1050 250 1060 250 411
s 1050 290 1050 250 414
s 940 290 1050 290 416
w 419
s 940 130 1020 130 418
w 422
s 1010 170 1010 300 421
s 1000 170 1010 170 424
s 1010 300 1030 300 426
w 429
s 1000 250 1020 250 428
s 1020 250 1020 330 431
s 1020 330 1030 330 433
w 436
s 1010 380 1030 380 435
s 1010 330 1010 380 438
s 1000 330 1010 330 440
w 443
s 1070 300 1340 300 442
s 1340 300 1340 330 445
s 1340 330 1360 330 447
w 475
s 1070 330 1120 330 816
w 480
s 1070 130 1070 210 482
s 1060 130 1070 130 484
s 1070 210 1100 210 492
s 1100 210 1120 210 709
w 496
s 1280 160 1280 190 521
s 1260 160 1280 160 523
s 1260 160 1260 190 526
s 1220 160 1220 170 528
s 1220 160 1240 160 536
s 1250 120 1240 120 533
s 1240 160 1260 160 540
s 1240 120 1240 160 539
s 1400 160 1400 190 552
s 1380 160 1400 160 555
s 1380 160 1380 190 557
s 1340 160 1380 160 559
s 1340 160 1340 170 562
s 1280 160 1340 160 564
s 1160 160 1160 190 498
s 1140 160 1160 160 500
s 1140 160 1140 190 503
s 1100 160 1140 160 505
s 1100 170 1100 160 508
s 1160 160 1220 160 840
w 570
s 1140 360 1160 360 572
s 1160 350 1160 360 574
s 1140 350 1140 360 578
s 1280 350 1280 360 583
s 1260 360 1280 360 585
s 1260 350 1260 360 588
s 1380 360 1400 360 590
s 1380 350 1380 360 593
s 1400 360 1400 350 595
s 1360 360 1380 360 597
s 1360 360 1360 380 600
s 1280 360 1360 360 808
s 1160 360 1260 360 813
w 869
a 0 s 3 0 0 0 hln 100 LABEL=Phase_1
s 1080 550 1180 550 1896
a 0 s 3 0 1130 548 hln 100 LABEL=Phase_1
s 1080 270 1140 270 253
s 1140 310 1140 270 251
s 1140 270 1140 230 254
s 1160 310 1140 310 242
s 1160 230 1140 230 247
s 1160 320 1160 310 239
s 1160 220 1160 230 244
s 1080 270 1080 450 1094
s 1080 450 1080 490 1150
s 1050 450 1080 450 1148
s 1050 490 1080 490 1152
s 1080 490 1080 550 1893
s 1180 550 1180 540 1898
w 1114
a 0 s 3 0 0 0 hln 100 LABEL=CT
s 1000 590 1000 680 1145
a 0 s 3 0 1002 635 hln 100 LABEL=CT
s 980 450 1000 450 1110
s 980 570 990 570 1119
s 1000 450 1010 450 1137
s 1000 570 1010 570 1139
s 1000 450 1000 570 1136
s 990 570 1000 570 1142
s 990 570 990 590 1141
s 990 590 1000 590 1144
s 980 680 1000 680 1130
s 1000 680 1010 680 1146
w 1118
s 980 490 1010 490 1115
s 960 520 980 520 1246
s 980 520 980 490 1249
w 1126
s 980 610 1010 610 1123
s 960 640 980 640 1241
s 980 640 980 610 1244
w 1135
s 980 720 1010 720 1132
s 960 750 980 750 1563
s 980 720 980 750 1571
w 1186
s 940 670 880 670 1184
s 880 670 880 560 1187
s 880 560 880 440 1190
s 940 560 880 560 1188
s 940 440 880 440 1192
s 880 670 880 740 1196
w 1208
a 0 s 3 0 0 0 hln 100 LABEL=BEMF1
s 900 470 830 470 1206
a 0 s 3 0 865 468 hln 100 LABEL=BEMF1
s 900 470 900 520 1216
s 900 520 920 520 1218
s 780 470 790 470 1333
s 790 470 830 470 1588
s 790 470 790 490 1586
w 1223
a 0 s 3 0 0 0 hln 100 LABEL=BEMF2
s 830 590 900 590 1220
a 0 s 3 0 865 588 hln 100 LABEL=BEMF2
s 900 590 900 640 1224
s 900 640 920 640 1226
s 780 590 790 590 1336
s 790 590 830 590 1592
s 790 590 790 610 1590
w 1231
a 0 s 3 0 865 698 hln 100 LABEL=BEMF3
s 820 700 900 700 1575
a 0 s 3 0 865 698 hln 100 LABEL=BEMF3
s 780 700 790 700 1339
s 900 750 920 750 1567
s 900 700 900 750 1570
s 790 700 820 700 1596
s 790 700 790 720 1594
w 1287
s 800 370 820 370 1285
s 820 370 820 430 1288
s 820 430 820 550 1291
s 830 430 820 430 1289
s 820 550 820 660 1295
s 830 550 820 550 1293
s 820 370 820 350 1447
s 820 350 390 350 1449
s 390 350 390 470 1450
s 320 310 390 310 1752
s 390 310 390 350 1755
w 1344
s 710 650 720 650 1342
s 720 650 720 700 1345
s 720 700 730 700 1346
s 720 700 650 700 1389
s 650 700 650 440 1391
s 650 440 600 440 1392
w 1350
s 710 530 720 530 1348
s 720 530 720 590 1351
s 720 590 730 590 1352
s 720 590 640 590 1372
s 640 590 640 460 1374
s 640 460 600 460 1375
w 1356
s 710 430 720 430 1354
s 720 430 720 470 1357
s 720 470 730 470 1358
s 720 470 630 470 1360
s 630 470 630 480 1363
s 630 480 600 480 1364
w 1368
s 660 430 630 430 1366
s 630 430 630 450 1369
s 630 450 600 450 1370
w 1379
s 660 530 610 530 1377
s 610 530 610 490 1380
s 610 490 600 490 1381
w 1385
s 660 650 620 650 1383
s 620 650 620 470 1386
s 620 470 600 470 1387
w 1396
s 600 510 600 560 1394
s 500 560 600 560 1422
w 1401
s 600 430 610 430 1399
s 610 430 610 420 1402
s 610 410 670 410 1403
s 610 420 610 410 1407
s 610 420 600 420 1405
w 1413
s 540 440 300 440 1750
s 280 420 300 420 1713
s 300 440 300 420 1751
w 1435
s 460 620 460 630 1432
s 460 630 460 640 1603
s 420 630 460 630 1602
s 430 590 420 590 1607
s 420 590 420 630 1610
w 1454
s 390 560 390 570 1475
s 390 560 430 560 2071
w 1515
a 0 s 3 0 0 0 hln 100 LABEL=Phase_2
s 1070 410 1220 410 1934
a 0 s 3 0 1177 420 hln 100 LABEL=Phase_2
s 1260 230 1260 270 468
s 1260 270 1260 310 471
s 1280 230 1260 230 459
s 1260 310 1280 310 461
s 1280 220 1280 230 456
s 1280 310 1280 320 464
s 1220 270 1260 270 1906
s 1220 270 1220 410 1902
s 1050 610 1070 610 1929
s 1070 610 1070 570 1932
s 1220 410 1220 420 1937
s 1070 570 1070 410 1942
s 1050 570 1070 570 1938
w 1605
s 540 480 510 480 1437
w 1735
s 320 400 320 410 1736
s 280 400 320 400 2062
w 1757
s 290 430 290 470 1731
s 280 430 290 430 1728
w 1762
s 170 360 170 400 1760
s 170 400 210 400 1763
w 1767
a 0 s 3 0 0 0 hln 100 LABEL=Start_Clk
s 80 380 150 380 1768
a 0 s 3 0 77 376 hln 100 LABEL=Start_Clk
s 150 380 150 360 1769
w 1774
a 0 s 3 0 0 0 hln 100 LABEL=Run
s 80 480 250 480 1772
a 0 s 3 0 85 476 hln 100 LABEL=Run
s 250 480 250 460 1775
w 1795
a 0 s 3 0 0 0 hln 100 LABEL=Brake
s 800 330 600 330 1803
a 0 s 3 0 594 324 hln 100 LABEL=Brake
s 930 170 800 170 1793
s 800 170 800 250 1796
s 800 330 930 330 1797
s 800 250 800 330 1801
s 930 250 800 250 1799
w 1874
s 940 500 860 500 1180
s 860 620 860 500 1257
s 940 620 860 620 1176
s 860 730 860 620 1253
s 940 730 860 730 1172
s 840 730 840 740 1879
s 840 730 860 730 1882
s 860 500 860 400 1887
s 860 400 880 400 1890
w 1876
s 840 780 840 790 1875
w 1907
a 0 s 3 0 0 0 hln 100 LABEL=Phase_3
s 1310 400 1140 400 1910
a 0 s 3 0 1103 396 hln 100 LABEL=Phase_3
s 1310 270 1380 270 295
s 1380 310 1380 270 285
s 1380 270 1380 230 296
s 1380 310 1400 310 287
s 1380 230 1400 230 289
s 1400 310 1400 320 291
s 1400 230 1400 220 293
s 1310 270 1310 400 1908
s 1140 400 1140 420 1912
s 1050 720 1060 720 1916
s 1060 720 1060 680 1919
s 1060 400 1140 400 1921
s 1060 680 1060 400 1928
s 1050 680 1060 680 1924
w 1944
s 1350 460 1360 460 1943
w 1948
s 1350 500 1360 500 1947
w 2050
s 390 510 390 520 1458
s 430 550 420 550 2073
s 420 550 420 520 2075
s 390 520 390 530 2079
s 420 520 390 520 2077
w 2061
s 320 350 320 360 1742
s 320 360 320 370 2068
s 280 360 320 360 2066
s 280 390 280 360 2069
@junction
j 380 170
+ w 13
+ w 13
j 380 190
+ w 13
+ w 13
j 620 190
+ w 56
+ w 56
j 330 260
+ w 81
+ w 81
j 140 260
+ w 81
+ w 81
j 280 270
+ w 96
+ w 96
j 100 160
+ w 121
+ w 121
j 800 150
+ w 132
+ w 132
j 790 180
+ w 146
+ w 146
j 780 220
+ w 160
+ w 160
j 770 260
+ w 172
+ w 172
j 760 300
+ w 186
+ w 186
j 750 200
+ w 198
+ w 198
j 1140 270
+ w 869
+ w 869
j 1380 270
+ w 1907
+ w 1907
j 1380 270
+ w 1907
+ w 1907
j 410 120
+ w 342
+ w 342
j 410 150
+ w 342
+ w 342
j 180 170
+ w 342
+ w 342
j 190 170
+ w 342
+ w 342
j 660 220
+ w 377
+ w 377
j 1260 270
+ w 1515
+ w 1515
j 1140 160
+ w 496
+ w 496
j 1280 160
+ w 496
+ w 496
j 1260 160
+ w 496
+ w 496
j 1240 160
+ w 496
+ w 496
j 1280 160
+ w 496
+ w 496
j 1260 160
+ w 496
+ w 496
j 1240 160
+ w 496
+ w 496
j 1220 160
+ w 496
+ w 496
j 1380 160
+ w 496
+ w 496
j 1380 160
+ w 496
+ w 496
j 1340 160
+ w 496
+ w 496
j 1160 360
+ w 570
+ w 570
j 1280 360
+ w 570
+ w 570
j 1380 360
+ w 570
+ w 570
j 1380 360
+ w 570
+ w 570
j 1360 360
+ w 570
+ w 570
j 1380 360
+ w 570
+ w 570
j 1280 360
+ w 570
+ w 570
j 1360 360
+ w 570
+ w 570
j 1260 360
+ w 570
+ w 570
j 140 230
+ p 620 \CLR\
+ w 81
j 110 180
+ p 620 CLK
+ w 96
j 110 160
+ p 620 J
+ w 121
j 110 200
+ p 620 K
+ w 121
j 170 170
+ p 620 Q
+ w 342
j 300 160
+ p 627 J
+ w 3
j 300 200
+ p 627 K
+ w 6
j 360 170
+ p 627 Q
+ w 13
j 330 230
+ p 627 \CLR\
+ w 81
j 300 180
+ p 627 CLK
+ w 96
j 600 190
+ p 634 \Q\
+ w 42
j 540 160
+ p 634 J
+ w 53
j 600 170
+ p 634 Q
+ w 56
j 540 200
+ p 634 K
+ w 74
j 570 230
+ p 634 \CLR\
+ w 81
j 540 180
+ p 634 CLK
+ w 96
j 270 160
+ p 641 Y
+ w 3
j 200 150
+ p 641 A
+ w 42
j 200 170
+ p 641 B
+ w 342
j 270 220
+ p 645 Y
+ w 6
j 200 230
+ p 645 B
+ w 13
j 200 210
+ p 645 A
+ w 342
j 420 170
+ p 649 B
+ w 13
j 490 160
+ p 649 Y
+ w 53
j 420 150
+ p 649 A
+ w 342
j 420 230
+ p 653 B
+ w 56
j 490 220
+ p 653 Y
+ w 74
j 420 210
+ p 653 A
+ w 342
j 890 130
+ p 657 A
+ w 211
j 940 130
+ p 657 Y
+ w 419
j 890 210
+ p 660 A
+ w 214
j 940 210
+ p 660 Y
+ w 405
j 890 290
+ p 663 A
+ w 217
j 940 290
+ p 663 Y
+ w 412
j 1140 310
+ p 666 c
+ w 869
j 1120 330
+ p 666 b
+ w 475
j 1140 350
+ p 666 e
+ w 570
j 1240 330
+ p 670 b
+ w 271
j 1260 310
+ p 670 c
+ w 1515
j 1260 350
+ p 670 e
+ w 570
j 1380 310
+ p 674 c
+ w 1907
j 1360 330
+ p 674 b
+ w 443
j 1380 350
+ p 674 e
+ w 570
j 1140 230
+ p 678 c
+ w 869
j 1120 210
+ p 678 b
+ w 480
j 1140 190
+ p 678 e
+ w 496
j 1240 210
+ p 682 b
+ w 220
j 1260 230
+ p 682 c
+ w 1515
j 1260 190
+ p 682 e
+ w 496
j 1360 210
+ p 686 b
+ w 258
j 1380 230
+ p 686 c
+ w 1907
j 1380 190
+ p 686 e
+ w 496
j 1160 220
+ p 690 1
+ w 869
j 1160 190
+ p 690 2
+ w 496
j 1280 220
+ p 693 1
+ w 1515
j 1280 190
+ p 693 2
+ w 496
j 1400 220
+ p 696 1
+ w 1907
j 1400 190
+ p 696 2
+ w 496
j 1280 320
+ p 699 2
+ w 1515
j 1280 350
+ p 699 1
+ w 570
j 1400 320
+ p 702 2
+ w 1907
j 1400 350
+ p 702 1
+ w 570
j 1160 320
+ p 705 2
+ w 869
j 1160 350
+ p 705 1
+ w 570
j 1100 210
+ p 708 1
+ w 480
j 1100 170
+ p 708 2
+ w 496
j 1220 210
+ p 712 1
+ w 220
j 1220 170
+ p 712 2
+ w 496
j 1340 210
+ p 715 1
+ w 258
j 1340 170
+ p 715 2
+ w 496
j 810 200
+ p 754 A
+ w 146
j 810 220
+ p 754 B
+ w 160
j 880 210
+ p 754 Y
+ w 214
j 810 280
+ p 758 A
+ w 172
j 810 300
+ p 758 B
+ w 186
j 880 290
+ p 758 Y
+ w 217
j 1020 130
+ p 766 1
+ w 419
j 1060 130
+ p 766 2
+ w 480
j 1100 240
+ p 769 2
+ w 220
j 1060 240
+ p 769 1
+ w 405
j 1100 250
+ p 772 2
+ w 258
j 1060 250
+ p 772 1
+ w 412
j 1030 330
+ p 775 1
+ w 429
j 1070 330
+ p 775 2
+ w 475
j 1070 380
+ p 778 2
+ w 271
j 1030 380
+ p 778 1
+ w 436
j 810 140
+ p 782 B
+ w 132
j 810 120
+ p 782 A
+ w 198
j 880 130
+ p 782 Y
+ w 211
j 1030 300
+ p 794 1
+ w 422
j 1070 300
+ p 794 2
+ w 443
j 100 140
+ s 819
+ w 121
j 660 240
+ s 821
+ w 377
j 1360 380
+ s 823
+ w 570
j 1250 120
+ s 825
+ w 496
j 1140 160
+ w 496
+ w 496
j 1160 160
+ w 496
+ w 496
j 1010 450
+ p 1107 1
+ w 1114
j 1010 490
+ p 1104 1
+ w 1118
j 1010 570
+ p 1108 1
+ w 1114
j 1010 610
+ p 1105 1
+ w 1126
j 1010 680
+ p 1109 1
+ w 1114
j 1010 720
+ p 1106 1
+ w 1135
j 1000 450
+ w 1114
+ w 1114
j 1000 570
+ w 1114
+ w 1114
j 990 570
+ w 1114
+ w 1114
j 1000 680
+ w 1114
+ w 1114
j 1050 450
+ p 1107 2
+ w 869
j 1080 450
+ w 869
+ w 869
j 1050 490
+ p 1104 2
+ w 869
j 860 620
+ w 1874
+ w 1874
j 880 560