Version 4
SHEET 1 1284 680
WIRE 528 -256 304 -256
WIRE 608 -256 528 -256
WIRE 768 -256 672 -256
WIRE 1024 -256 768 -256
WIRE 1056 -256 1024 -256
WIRE 1072 -256 1056 -256
WIRE 1024 -208 1024 -256
WIRE 304 -176 304 -256
WIRE -64 -160 -176 -160
WIRE 160 -160 16 -160
WIRE 528 -112 528 -256
WIRE 768 -112 768 -256
WIRE 160 -96 160 -160
WIRE 1024 -80 1024 -144
WIRE 1024 -80 864 -80
WIRE -176 -64 -176 -160
WIRE 864 -64 864 -80
WIRE 304 -48 304 -96
WIRE 304 -48 272 -48
WIRE 272 -32 272 -48
WIRE 1024 -32 1024 -80
WIRE 304 -16 304 -48
WIRE 528 32 528 -48
WIRE 608 32 528 32
WIRE 768 32 768 -48
WIRE 768 32 672 32
WIRE -176 64 -176 16
WIRE 160 64 160 -16
WIRE 160 64 -176 64
WIRE -176 96 -176 64
WIRE 528 96 528 32
WIRE 1024 96 1024 32
WIRE 1024 96 528 96
WIRE 1056 96 1024 96
WIRE 1072 96 1056 96
WIRE 304 128 304 64
WIRE 768 128 768 32
WIRE 768 128 304 128
WIRE 288 224 208 224
WIRE 528 224 288 224
WIRE 800 224 656 224
WIRE 832 224 800 224
WIRE 944 224 912 224
WIRE 1040 224 944 224
WIRE 1216 224 1040 224
WIRE 1040 240 1040 224
WIRE 288 256 288 224
WIRE 800 256 800 224
WIRE 1216 272 1216 224
WIRE 592 320 592 304
WIRE 752 320 592 320
WIRE 944 320 944 224
WIRE 944 320 848 320
WIRE 288 368 288 336
WIRE 400 368 288 368
WIRE 1040 368 1040 320
WIRE 1040 368 736 368
WIRE 592 384 592 320
WIRE 672 384 592 384
WIRE 1040 384 1040 368
WIRE 1216 384 1216 352
WIRE 768 400 736 400
WIRE 704 432 704 416
WIRE 288 448 288 368
WIRE 400 464 400 448
WIRE 768 464 768 400
WIRE 768 464 400 464
WIRE 400 496 400 464
WIRE 1040 496 1040 464
WIRE 288 624 288 512
WIRE 400 624 400 576
WIRE 400 624 288 624
WIRE 288 656 288 624
FLAG 272 -32 0
FLAG 864 -64 0
FLAG -176 96 0
FLAG 1056 -256 v+
FLAG 1056 96 v-
FLAG 704 432 0
FLAG 704 352 v+
FLAG 208 224 v+
FLAG 288 656 0
FLAG 1040 496 0
FLAG 1216 384 0
SYMBOL voltage -176 -80 R0
WINDOW 123 24 44 Left 2
WINDOW 39 0 0 Left 0
SYMATTR InstName V1
SYMATTR Value SINE(0 311 50)
SYMBOL ind2 144 -112 R0
SYMATTR InstName L1
SYMATTR Value .3
SYMBOL ind2 288 -192 R0
SYMATTR InstName L2
SYMATTR Value .001395
SYMBOL ind2 288 -32 R0
SYMATTR InstName L3
SYMATTR Value .001395
SYMBOL res 32 -176 R90
WINDOW 0 0 56 VBottom 2
WINDOW 3 32 56 VTop 2
SYMATTR InstName R3
SYMATTR Value 1
SYMBOL cap 1008 -208 R0
SYMATTR InstName C1
SYMATTR Value 4700ｵ
SYMBOL cap 1008 -32 R0
SYMATTR InstName C2
SYMATTR Value 4700ｵ
SYMBOL diode 608 -240 R270
WINDOW 0 32 32 VTop 2
WINDOW 3 0 32 VBottom 2
SYMATTR InstName D5
SYMATTR Value MURS120
SYMBOL diode 784 -48 R180
WINDOW 0 24 64 Left 2
WINDOW 3 -27 -5 Left 2
SYMATTR InstName D6
SYMATTR Value MURS120
SYMBOL diode 544 -48 R180
WINDOW 0 24 64 Left 2
WINDOW 3 -27 -5 Left 2
SYMATTR InstName D7
SYMATTR Value MURS120
SYMBOL diode 608 48 R270
WINDOW 0 32 32 VTop 2
WINDOW 3 84 41 VBottom 2
SYMATTR InstName D8
SYMATTR Value MURS120
SYMBOL Darlington\ npn 592 256 R270
SYMATTR Value TIP120
SYMATTR InstName U1
SYMBOL res 272 240 R0
SYMATTR InstName R4
SYMATTR Value 7800
SYMBOL res 384 352 R0
SYMATTR InstName R5
SYMATTR Value 24.6k
SYMBOL res 384 480 R0
SYMATTR InstName R6
SYMATTR Value 100k
SYMBOL zener 304 512 R180
WINDOW 0 24 64 Left 2
WINDOW 3 24 0 Left 2
SYMATTR InstName D1
SYMATTR Value BZX84C6V2L
SYMBOL OpAmps\\opamp2 704 320 M0
SYMATTR InstName U2
SYMATTR Value LM741/NS
SYMBOL res 928 208 R90
WINDOW 0 0 56 VBottom 2
WINDOW 3 32 56 VTop 2
SYMATTR InstName R7
SYMATTR Value 0.65
SYMBOL npn 752 256 M90
SYMATTR InstName Q1
SYMBOL res 1024 224 R0
SYMATTR InstName R8
SYMATTR Value 1.4k
SYMBOL res 1024 368 R0
SYMATTR InstName R9
SYMATTR Value 1k
SYMBOL current 1216 272 R0
WINDOW 123 0 0 Left 0
WINDOW 39 0 0 Left 0
SYMATTR InstName I1
SYMATTR Value {a}
TEXT 320 -464 Left 2 !.tran 0 1000m 900m .001m
TEXT 320 -512 Left 2 !K123 l1 l2 l3 1
TEXT 312 -560 Left 2 !.lib "E:\\Claudio\\Docencia personal\\LTSpice\\1propia.lib"
TEXT 320 -408 Left 2 ;.op
TEXT 320 -368 Left 2 !.param a=1.379
TEXT 328 -328 Left 2 ;.step param a 0 1.5 .1
