*version 6.3 346026920
u 12979
U? 33
R? 6
C? 4
IC? 1
D? 5
S? 11
V? 7
IN? 3
? 39
@libraries
@analysis
.TRAN 1 0 0 0
+0 10ms
+1 40MS
.OPT 1 0 0 0 0 0 0 0 0 0 0 0 0 0 0
ITL1 200
ITL4 20
.OP 0 
.PROBE 0 0 0 1 0 2
.LIB dsad.lib
.INC dsad.stm
@targets
@attributes
@translators
a 0 u 13 0 0 0 hln 100 PSPICE=DEFAULT
a 0 u 13 0 0 0 hln 100 PCBOARDS=PCB
a 0 u 13 0 0 0 hln 100 PADS=PCB
a 0 u 13 0 0 0 hln 100 PCAD=PCB
a 0 u 13 0 0 0 hln 100 PROTEL=PCB
a 0 u 13 0 0 0 hln 100 TANGO=PCB
a 0 u 13 0 0 0 hln 100 CADSTAR=PCB
a 0 u 13 0 0 0 hln 100 EDIF=PCB
a 0 u 13 0 0 0 hln 100 SCICARDS=PCB
a 0 u 13 0 0 0 hln 100 POLARIS=PCB
a 0 u 13 0 0 0 hln 100 ORCAD=PCB
@index
pageloc 1 0 38484 
@status
n 0 96:02:04:17:11:48;825988308 e 
s 2832 96:02:04:17:11:49;825988309 e 
*page 1 0 1520 970 iB
@ports
port 92 agnd 380 260 h
a 0 sp 0 0 0 0 hln 100 PART=agnd
port 678 GND_ANALOG 610 350 h
a 0 sp 0 0 0 0 hln 100 PART=GND_ANALOG
port 1110 global 110 610 h
a 1 s 13 0 13 8 hcn 100 label=Clock
a 0 sp 0 0 0 0 hln 100 PART=global
port 2095 global 120 190 h
a 1 s 13 0 17 8 hcn 100 label=In_Pos
a 0 sp 0 0 0 0 hln 100 PART=global
port 2096 global 120 250 h
a 1 s 13 0 17 8 hcn 100 label=In_Neg
a 0 sp 0 0 0 0 hln 100 PART=global
port 2188 global 110 830 h
a 1 s 13 0 15 8 hcn 100 label=Reset
a 0 sp 0 0 0 0 hln 100 PART=global
port 2694 agnd 130 400 h
a 0 sp 0 0 0 0 hln 100 PART=agnd
port 5170 global 120 140 h
a 1 s 13 0 27 -4 hcn 100 label=Integ_Input
a 0 sp 0 0 0 0 hln 100 PART=global
port 5307 global 890 760 u
a 1 s 13 0 -29 9 hcn 100 label=Integ_Input
a 0 sp 0 0 0 0 hln 100 PART=global
port 5371 global 1450 400 u
a 1 x 13 0 33 19 hcn 100 label=IntegRef_Pos
a 0 sp 0 0 0 0 hln 100 PART=global
port 5373 global 1450 460 u
a 1 s 13 0 13 9 hcn 100 label=S7
a 0 sp 0 0 0 0 hln 100 PART=global
port 5375 global 1450 510 u
a 1 s 13 0 13 7 hcn 100 label=S3
a 0 sp 0 0 0 0 hln 100 PART=global
port 5377 global 1450 570 u
a 1 s 13 0 25 19 hcn 100 label=Auto_Zero
a 0 sp 0 0 0 0 hln 100 PART=global
port 5379 global 1450 310 u
a 1 x 13 0 35 19 hcn 100 label=IntegRef_Neg
a 0 sp 0 0 0 0 hln 100 PART=global
port 5403 GND_ANALOG 510 380 h
a 1 s 14 0 14 20 hcn 100 label=0
a 0 sp 0 0 0 0 hln 100 PART=GND_ANALOG
port 5463 global 120 320 h
a 1 s 13 0 25 -2 hcn 100 label=Auto_Zero
a 0 sp 0 0 0 0 hln 100 PART=global
port 5469 global 120 340 h
a 1 s 13 0 9 8 hcn 100 label=S7
a 0 sp 0 0 0 0 hln 100 PART=global
port 5481 global 120 450 h
a 1 x 13 0 33 -2 hcn 100 label=IntegRef_Neg
a 0 sp 0 0 0 0 hln 100 PART=global
port 6183 BUBBLE 710 130 h
a 1 s 14 0 8 0 hcn 100 LABEL=$G_DPWR
a 0 sp 0 0 0 0 hln 100 PART=BUBBLE
port 6188 AGND 710 340 h
a 1 s 14 0 9 22 hln 100 label=-15V
a 0 sp 0 0 0 0 hln 100 PART=AGND
port 6195 global 120 280 h
a 1 s 13 0 7 8 hcn 100 label=S3
a 0 sp 0 0 0 0 hln 100 PART=global
port 6308 agnd 260 500 h
a 0 sp 0 0 0 0 hln 100 PART=agnd
port 5232 agnd 200 150 h
a 0 sp 0 0 0 0 hln 100 PART=agnd
port 5234 agnd 200 210 h
a 0 sp 0 0 0 0 hln 100 PART=agnd
port 6341 global 120 430 h
a 1 x 13 0 33 -2 hcn 100 label=IntegRef_Pos
a 0 sp 0 0 0 0 hln 100 PART=global
port 6345 agnd 370 500 h
a 0 sp 0 0 0 0 hln 100 PART=agnd
port 6481 GLOBAL 1420 830 H
a 1 s 13 0 23 -4 hcn 100 label=Sign_Neg
a 0 sp 0 0 0 0 hln 100 PART=GLOBAL
port 6507 AGND 490 260 h
a 0 sp 0 0 0 0 hln 100 PART=AGND
port 6517 BUBBLE 590 140 h
a 1 s 14 0 10 0 hcn 100 LABEL=+15V
a 0 sp 0 0 0 0 hln 100 PART=BUBBLE
port 6625 AGND 630 190 h
a 1 s 14 0 8 24 hln 100 label=$G_DGND
a 0 sp 0 0 0 0 hln 100 PART=AGND
port 6691 agnd 150 930 h
a 0 sp 0 0 0 0 hln 100 PART=agnd
port 6693 bubble 90 890 h
a 1 s 14 0 10 0 hcn 100 LABEL=In_Pos
a 0 sp 0 0 0 0 hln 100 PART=bubble
port 6695 bubble 150 890 h
a 1 s 14 0 0 0 hcn 100 LABEL=In_Neg
a 0 sp 0 0 0 0 hln 100 PART=bubble
port 6697 agnd 220 930 h
a 0 sp 0 0 0 0 hln 100 PART=agnd
port 6699 agnd 280 930 h
a 0 sp 0 0 0 0 hln 100 PART=agnd
port 6701 bubble 220 890 h
a 1 s 14 0 10 0 hcn 100 LABEL=+15V
a 0 sp 0 0 0 0 hln 100 PART=bubble
port 6703 bubble 280 890 h
a 1 s 14 0 0 0 hcn 100 LABEL=-15V
a 0 sp 0 0 0 0 hln 100 PART=bubble
port 7400 bubble 560 410 d
a 1 s 14 0 8 -24 hcn 100 LABEL=VREF
a 0 sp 0 0 0 0 hln 100 PART=bubble
port 7411 agnd 330 930 h
a 0 sp 0 0 0 0 hln 100 PART=agnd
port 7413 bubble 330 890 h
a 1 s 14 0 10 0 hcn 100 LABEL=VREF
a 0 sp 0 0 0 0 hln 100 PART=bubble
port 6513 BUBBLE 300 200 d
a 1 s 14 0 12 -21 hcn 100 LABEL=+15V
a 0 sp 0 0 0 0 hln 100 PART=BUBBLE
port 6515 BUBBLE 460 220 V
a 1 s 14 0 8 2 hcn 100 LABEL=+15V
a 0 sp 0 0 0 0 hln 100 PART=BUBBLE
port 10966 LO 160 640 h
port 10968 HI 900 550 d
port 10969 HI 560 680 d
port 10992 HI 890 360 d
port 12696 bubble 300 140 d
a 1 x 14 0 4 -22 hcn 100 LABEL=-15V
port 12697 bubble 460 160 d
a 1 x 14 0 8 -24 hcn 100 LABEL=-15V
port 12698 bubble 590 200 u
a 1 x 14 0 8 2 hcn 100 LABEL=-15V
@parts
part 4 R 360 170 h
a 0 sp 0 0 0 0 hln 100 PART=R
a 0 ap 9 0 15 0 hln 100 refdes=R1
a 0 u 13 0 15 25 hln 100 value=2K
a 0 s 0 0 0 0 hln 100 PKGREF=R1
part 5 R 710 170 v
a 0 sp 0 0 0 0 hln 100 PART=R
a 0 ap 9 0 25 30 hln 100 refdes=R2
a 0 u 13 0 15 35 hln 100 value=500
a 0 s 0 0 0 0 hln 100 PKGREF=R2
part 6 R 450 290 h
a 0 sp 0 0 0 0 hln 100 PART=R
a 0 ap 9 0 15 0 hln 100 refdes=R3
a 0 u 13 0 10 25 hln 100 value=100K
a 0 s 0 0 0 0 hln 100 PKGREF=R3
part 7 R 710 230 d
a 0 sp 0 0 0 0 hln 100 PART=R
a 0 ap 9 0 15 0 hln 100 refdes=R4
a 0 u 13 0 30 0 hln 100 value=2K
a 0 s 0 0 0 0 hln 100 PKGREF=R4
part 8 R 710 300 d
a 0 sp 0 0 0 0 hln 100 PART=R
a 0 ap 9 0 15 0 hln 100 refdes=R5
a 0 u 13 0 30 0 hln 100 value=18K
a 0 s 0 0 0 0 hln 100 PKGREF=R5
part 27 C 330 290 h
a 0 sp 0 0 0 0 hln 100 PART=C
a 0 ap 9 0 15 0 hln 100 refdes=C1
a 0 u 13 0 15 25 hln 100 value=50u
a 0 s 0 0 0 0 hln 100 PKGREF=C1
part 110 7400 950 270 h
a 0 ap 9 0 40 0 hln 100 REFDES=U2
a 0 s 0 0 0 0 hln 100 PKGREF=U2
part 111 7400 1140 280 h
a 0 ap 9 0 40 0 hln 100 REFDES=U3
a 0 s 0 0 0 0 hln 100 PKGREF=U3
part 112 7402 950 330 h
a 0 ap 9 0 40 0 hln 100 REFDES=U4
a 0 s 0 0 0 0 hln 100 PKGREF=U4
a 0 s 11 0 40 50 hln 100 PART=7402
part 113 7402 1050 340 h
a 0 ap 9 0 40 0 hln 100 REFDES=U5
a 0 s 0 0 0 0 hln 100 PKGREF=U5
a 0 s 11 0 40 50 hln 100 PART=7402
part 114 7402 1340 300 h
a 0 ap 9 0 40 0 hln 100 REFDES=U6
a 0 s 0 0 0 0 hln 100 PKGREF=U6
part 115 7402 1370 390 h
a 0 ap 9 0 40 0 hln 100 REFDES=U7
a 0 sp 13 0 44 46 hln 100 PART=7402
a 0 s 0 0 0 0 hln 100 PKGREF=U7
part 117 7404 1070 500 h
a 0 ap 9 0 40 10 hln 100 REFDES=U8
a 0 s 0 0 0 0 hln 100 PKGREF=U8
part 118 7400 960 490 h
a 0 ap 9 0 40 0 hln 100 REFDES=U9
a 0 s 0 0 0 0 hln 100 PKGREF=U9
part 119 7410 1250 290 h
a 0 ap 9 0 40 0 hln 100 REFDES=U10
a 0 s 0 0 0 0 hln 100 PKGREF=U10
part 143 7400 960 560 h
a 0 ap 9 0 40 0 hln 100 REFDES=U11
a 0 s 0 0 0 0 hln 100 PKGREF=U11
part 314 7400 760 400 h
a 0 ap 9 0 40 0 hln 100 REFDES=U14
a 0 s 0 0 0 0 hln 100 PKGREF=U14
part 1545 7400 780 690 h
a 0 ap 9 0 40 0 hln 100 REFDES=U15
a 0 s 0 0 0 0 hln 100 PKGREF=U15
part 2013 7404 130 780 h
a 0 ap 9 0 40 10 hln 100 REFDES=U16
a 0 s 0 0 0 0 hln 100 PKGREF=U16
part 2724 C 460 420 v
a 0 sp 0 0 0 0 hln 100 PART=C
a 0 ap 9 0 20 35 hln 100 refdes=C2
a 0 u 13 0 5 35 hln 100 value=25u
a 0 s 0 0 0 0 hln 100 PKGREF=C2
part 5327 7432 1370 500 h
a 0 s 13 0 48 46 hln 100 part=7432
a 0 ap 9 0 50 6 hln 100 refdes=U17
a 0 s 0 0 0 0 hln 100 PKGREF=U17
part 5329 7432 1370 450 h
a 0 s 13 0 50 40 hln 100 part=7432
a 0 ap 9 0 40 0 hln 100 refdes=U18
a 0 s 0 0 0 0 hln 100 PKGREF=U18
part 1072 7490A 190 670 h
a 0 ap 9 0 40 -2 hln 100 REFDES=U19
a 0 s 13 0 35 110 hln 100 PART=7490A
a 0 s 0 0 0 0 hln 100 PKGREF=U19
part 2055 7490A 310 670 h
a 0 ap 9 0 40 -2 hln 100 REFDES=U20
a 0 s 13 0 40 110 hln 100 PART=7490A
a 0 s 0 0 0 0 hln 100 PKGREF=U20
part 2061 7490A 430 670 h
a 0 ap 9 0 40 -2 hln 100 REFDES=U21
a 0 s 13 0 35 110 hln 100 PART=7490A
a 0 s 0 0 0 0 hln 100 PKGREF=U21
part 6558 7474 870 590 h
a 0 s 13 0 40 80 hln 100 PART=7474
a 0 ap 9 0 40 10 hln 100 REFDES=U22
a 0 s 0 0 0 0 hln 100 PKGREF=U22
part 6565 7474 780 590 h
a 0 s 13 0 40 80 hln 100 PART=7474
a 0 ap 9 0 40 10 hln 100 REFDES=U23
a 0 s 0 0 0 0 hln 100 PKGREF=U23
part 6572 74LS74A 860 390 h
a 0 s 13 0 40 80 hln 100 PART=74LS74A
a 0 ap 9 0 40 10 hln 100 REFDES=U24
a 0 s 0 0 0 0 hln 100 PKGREF=U24
part 6579 74273 1330 600 h
a 0 s 13 0 40 120 hln 100 PART=74273
a 0 ap 9 0 36 -4 hln 100 REFDES=U25
a 0 s 0 0 0 0 hln 100 PKGREF=U25
part 6598 74273 1330 760 h
a 0 s 13 0 40 120 hln 100 PART=74273
a 0 ap 9 0 36 -4 hln 100 REFDES=U26
a 0 s 0 0 0 0 hln 100 PKGREF=U26
part 6685 VSRC 90 890 h
a 1 u 0 0 0 0 hcn 100 tran=1.5V
a 0 sp 0 0 0 0 hln 100 PART=VSRC
a 1 ap 9 0 20 10 hcn 100 refdes=V1
a 0 s 0 0 0 0 hln 100 PKGREF=V1
part 6686 VSRC 150 890 h
a 1 u 0 0 0 0 hcn 100 tran=0.2V
a 0 sp 0 0 0 0 hln 100 PART=VSRC
a 1 ap 9 0 20 10 hcn 100 refdes=V2
a 0 s 0 0 0 0 hln 100 PKGREF=V2
part 6687 VSRC 220 890 h
a 1 u 0 0 0 0 hcn 100 tran=+15V
a 0 sp 0 0 0 0 hln 100 PART=VSRC
a 1 ap 9 0 20 10 hcn 100 refdes=V3
a 0 s 0 0 0 0 hln 100 PKGREF=V3
part 6688 VSRC 280 890 h
a 1 u 0 0 0 0 hcn 100 tran=-15V
a 0 sp 0 0 0 0 hln 100 PART=VSRC
a 1 ap 9 0 20 10 hcn 100 refdes=V4
a 0 s 0 0 0 0 hln 100 PKGREF=V4
part 7410 VSRC 330 890 h
a 1 u 0 0 0 0 hcn 100 tran=1V
a 0 sp 0 0 0 0 hln 100 PART=VSRC
a 1 ap 9 0 20 10 hcn 100 refdes=V5
a 0 s 0 0 0 0 hln 100 PKGREF=V5
part 25 C 520 150 d
a 0 sp 0 0 0 0 hln 100 PART=C
a 0 ap 9 0 15 0 hln 100 refdes=C3
a 0 u 13 0 30 5 hln 100 value=1.6u
a 0 s 0 0 0 0 hln 100 PKGREF=C3
part 8898 7402 760 750 h
a 0 sp 13 0 40 50 hln 100 PART=7402
a 0 ap 9 0 40 0 hln 100 REFDES=U29
a 0 s 0 0 0 0 hln 100 PKGREF=U29
part 10847 D1N914 580 330 v
a 0 sp 13 0 10 55 hln 100 PART=D1N914
a 0 ap 9 0 20 35 hln 100 refdes=D1
a 0 s 0 0 0 0 hln 100 PKGREF=D1
part 10850 D1N914 640 300 d
a 0 sp 13 0 20 0 hln 100 PART=D1N914
a 0 ap 9 0 10 0 hln 100 refdes=D4
a 0 s 0 0 0 0 hln 100 PKGREF=D4
part 5160 sbreak 160 210 D
a 0 sp 0 0 0 0 hln 100 PART=sbreak
a 0 xp 9 0 8 35 hln 100 refdes=S1
a 0 sp 13 0 20 35 hln 100 MODEL=S
a 0 s 0 0 0 0 hln 100 PKGREF=S1
part 5158 sbreak 160 150 D
a 0 sp 0 0 0 0 hln 100 PART=sbreak
a 0 xp 9 0 8 35 hln 100 refdes=S2
a 0 sp 13 0 20 35 hln 100 MODEL=S
a 0 s 0 0 0 0 hln 100 PKGREF=S2
part 2986 sbreak 340 210 D
a 0 sp 0 0 0 0 hln 100 PART=sbreak
a 0 xp 9 0 10 41 hln 100 refdes=S3
a 0 sp 13 0 20 35 hln 100 MODEL=S
a 0 s 0 0 0 0 hln 100 PKGREF=S3
part 2966 sbreak 160 360 d
a 0 sp 0 0 0 0 hln 100 PART=sbreak
a 0 xp 9 0 3 3 hln 100 refdes=S4
a 0 sp 13 0 20 35 hln 100 MODEL=S
a 0 s 0 0 0 0 hln 100 PKGREF=S4
part 2972 sbreak 270 450 h
a 0 sp 0 0 0 0 hln 100 PART=sbreak
a 0 xp 9 0 20 0 hln 100 refdes=S5
a 0 sp 13 0 20 35 hln 100 MODEL=S
a 0 s 0 0 0 0 hln 100 PKGREF=S5
part 2970 sbreak 270 370 h
a 0 sp 0 0 0 0 hln 100 PART=sbreak
a 0 xp 9 0 25 0 hln 100 refdes=S6
a 0 sp 13 0 20 35 hln 100 MODEL=S
a 0 s 0 0 0 0 hln 100 PKGREF=S6
part 2974 sbreak 380 370 h
a 0 sp 0 0 0 0 hln 100 PART=sbreak
a 0 xp 9 0 25 0 hln 100 refdes=S7
a 0 sp 13 0 20 35 hln 100 MODEL=S
a 0 s 0 0 0 0 hln 100 PKGREF=S7
part 2976 sbreak 380 450 h
a 0 sp 0 0 0 0 hln 100 PART=sbreak
a 0 xp 9 0 25 0 hln 100 refdes=S8
a 0 sp 13 0 20 35 hln 100 MODEL=S
a 0 s 0 0 0 0 hln 100 PKGREF=S8
part 3027 sbreak 540 370 d
a 0 sp 0 0 0 0 hln 100 PART=sbreak
a 0 ap 9 0 5 5 hln 100 refdes=S9
a 0 s 0 0 0 0 hln 100 PKGREF=S9
a 0 sp 11 0 22 17 hln 100 MODEL=S
part 3001 sbreak 520 250 d
a 0 sp 0 0 0 0 hln 100 PART=sbreak
a 0 ap 9 0 10 5 hln 100 refdes=S10
a 0 sp 13 0 20 35 hln 100 MODEL=S
a 0 s 0 0 0 0 hln 100 PKGREF=S10
part 249 74107 660 440 h
a 0 ap 9 0 40 -3 hln 100 REFDES=U13
a 0 s 0 0 0 0 hln 100 PKGREF=U13
a 0 s 11 0 34 80 hln 100 PART=74107
part 248 74107 570 680 h
a 0 ap 9 0 40 -5 hln 100 REFDES=U12
a 0 s 0 0 0 0 hln 100 PKGREF=U12
a 0 s 11 0 36 80 hln 100 PART=74107
part 1 LF411 260 190 U
a 0 ap 9 0 26 32 hcn 100 refdes=U28
a 0 sp 13 0 75 23 hcn 100 part=LF411
a 0 s 0 0 0 0 hln 100 PKGREF=U28
part 2 LF411 420 210 U
a 0 ap 9 0 22 34 hcn 100 refdes=U27
a 0 sp 13 0 69 23 hcn 100 part=LF411
a 0 s 0 0 0 0 hln 100 PKGREF=U27
part 3 LM111 550 150 h
a 0 sp 13 0 60 65 hcn 100 part=LM111
a 0 ap 9 0 20 33 hcn 100 refdes=U1
a 0 s 0 0 0 0 hln 100 PKGREF=U1
part 12978 readme 840 120 h
a 0 u 3 0 22 34 hln 100 filename=dsad.rdm
a 0 sp 0 0 17 20 hln 200 PART=readme
a 0 a 0 0 0 0 hln 100 PKGREF=
part 11001 nodeMarker 840 390 h
a 0 s 0 0 0 0 hln 100 MARKERTYPE=NODE
a 0 a 0 0 4 22 hlb 100 LABEL=24
part 11247 nodeMarker 960 810 h
a 0 s 0 0 0 0 hln 100 MARKERTYPE=NODE
a 0 a 0 0 4 22 hlb 100 LABEL=28
part 11267 nodeMarker 1420 700 h
a 0 s 0 0 0 0 hln 100 MARKERTYPE=NODE
a 0 a 0 0 4 22 hlb 100 LABEL=29
part 11540 nodeMarker 530 190 U
a 0 s 0 0 0 0 hln 100 MARKERTYPE=NODE
a 0 a 0 0 4 22 hlb 100 LABEL=35
part 12962 nodeMarker 1240 680 h
a 0 s 0 0 0 0 hln 100 MARKERTYPE=NODE
a 0 a 0 0 4 22 hlb 100 LABEL=38
@conn
w 11806
s 1040 360 1050 360 11805
s 1040 500 1070 500 11807
s 1040 500 1040 360 11809
s 1030 500 1040 500 11811
w 11814
s 730 710 780 710 11813
s 730 710 730 770 11815
s 760 770 730 770 11817
s 730 710 630 710 11819
w 11822
s 900 700 900 640 11821
s 900 700 960 700 11823
s 960 700 960 580 11825
s 850 700 900 700 11827
w 11830
s 1220 660 770 660 11829
s 1220 660 1220 290 11831
s 1210 290 1220 290 11833
s 770 660 770 590 11835
s 770 590 780 590 11837
s 1220 290 1250 290 11839
w 11842
s 900 550 900 560 11841
w 11863
s 1360 880 1360 870 11862
s 1240 880 1360 880 11868
s 1360 720 1360 710 11864
s 1240 720 1360 720 11866
s 1240 720 1240 830 11899
s 120 830 600 830 11872
s 120 830 120 780 11874
s 600 830 600 770 11882
s 600 770 600 750 11903
s 690 770 600 770 11880
s 120 780 130 780 11883
s 690 770 690 520 11891
s 690 520 690 510 11904
s 690 520 810 520 11896
s 810 520 890 520 11905
s 810 560 810 520 11894
s 890 520 890 440 11897
s 1240 830 1240 880 11906
s 600 830 1240 830 11901
s 110 830 120 830 11907
w 11910
a 0 s 3 0 1397 598 hln 100 LABEL=D0
s 1390 600 1420 600 11909
a 0 s 3 0 1397 598 hln 100 LABEL=D0
w 11912
a 0 s 3 0 1397 608 hln 100 LABEL=D1
s 1390 610 1420 610 11911
a 0 s 3 0 1397 608 hln 100 LABEL=D1
w 11914
a 0 s 3 0 1397 618 hln 100 LABEL=D2
s 1390 620 1420 620 11913
a 0 s 3 0 1397 618 hln 100 LABEL=D2
w 11916
a 0 s 3 0 1397 628 hln 100 LABEL=D3
s 1390 630 1420 630 11915
a 0 s 3 0 1397 628 hln 100 LABEL=D3
w 11918
a 0 s 3 0 1397 638 hln 100 LABEL=D4
s 1390 640 1420 640 11917
a 0 s 3 0 1397 638 hln 100 LABEL=D4
w 11920
a 0 s 3 0 1397 648 hln 100 LABEL=D5
s 1390 650 1420 650 11919
a 0 s 3 0 1397 648 hln 100 LABEL=D5
w 11922
a 0 s 3 0 1397 658 hln 100 LABEL=D6
s 1390 660 1420 660 11921
a 0 s 3 0 1397 658 hln 100 LABEL=D6
w 11924
a 0 s 3 0 1397 668 hln 100 LABEL=D7
s 1390 670 1420 670 11923
a 0 s 3 0 1397 668 hln 100 LABEL=D7
w 11926
a 0 s 3 0 1397 758 hln 100 LABEL=D8
s 1390 760 1420 760 11925
a 0 s 3 0 1397 758 hln 100 LABEL=D8
w 11928
a 0 s 3 0 1397 768 hln 100 LABEL=D9
s 1390 770 1420 770 11927
a 0 s 3 0 1397 768 hln 100 LABEL=D9
w 11930
a 0 s 3 0 1397 778 hln 100 LABEL=D10
s 1390 780 1420 780 11929
a 0 s 3 0 1397 778 hln 100 LABEL=D10
w 11932
a 0 s 3 0 1397 788 hln 100 LABEL=D11
s 1390 790 1420 790 11931
a 0 s 3 0 1397 788 hln 100 LABEL=D11
w 11934
a 0 s 3 0 1397 798 hln 100 LABEL=D12
s 1390 800 1420 800 11933
a 0 s 3 0 1397 798 hln 100 LABEL=D12
w 11936
s 1390 830 1420 830 11935
w 11938
s 940 610 940 560 11937
s 940 560 960 560 11939
s 930 610 940 610 11943
s 940 560 940 510 11945
s 1240 460 940 460 11947
s 1240 310 1250 310 11949
s 1240 460 1240 310 11951
s 940 510 940 460 11955
s 940 510 960 510 11953
s 810 640 810 650 11860
s 810 650 940 650 12966
s 940 650 940 610 12968
w 11957
a 0 sp 3 0 1050 678 hln 100 LABEL=Strobe
s 1260 680 1330 680 11970
a 0 sp 3 0 1050 678 hln 100 LABEL=Strobe
s 860 610 860 680 11958
s 860 610 870 610 11960
s 840 610 860 610 11962
s 860 680 1240 680 11966
s 1260 840 1330 840 11964
s 1260 680 1260 840 11968
s 1240 680 1260 680 12963
w 11972
a 0 sp 3 0 1310 790 hln 100 LABEL=C11
s 1300 790 1330 790 11971
a 0 sp 3 0 1310 790 hln 100 LABEL=C11
w 11974
a 0 sp 3 0 1310 600 hln 100 LABEL=C0
s 1300 600 1330 600 11973
a 0 sp 3 0 1310 600 hln 100 LABEL=C0
w 11976
a 0 sp 3 0 1310 610 hln 100 LABEL=C1
s 1300 610 1330 610 11975
a 0 sp 3 0 1310 610 hln 100 LABEL=C1
w 11978
a 0 sp 3 0 1310 620 hln 100 LABEL=C2
s 1300 620 1330 620 11977
a 0 sp 3 0 1310 620 hln 100 LABEL=C2
w 11980
a 0 sp 3 0 1310 630 hln 100 LABEL=C3
s 1300 630 1330 630 11979
a 0 sp 3 0 1310 630 hln 100 LABEL=C3
w 11982
a 0 sp 3 0 1310 640 hln 100 LABEL=C4
s 1300 640 1330 640 11981
a 0 sp 3 0 1310 640 hln 100 LABEL=C4
w 11984
a 0 sp 3 0 1310 650 hln 100 LABEL=C5
s 1300 650 1330 650 11983
a 0 sp 3 0 1310 650 hln 100 LABEL=C5
w 11986
a 0 sp 3 0 1310 660 hln 100 LABEL=C6
s 1300 660 1330 660 11985
a 0 sp 3 0 1310 660 hln 100 LABEL=C6
w 11988
a 0 sp 3 0 1310 670 hln 100 LABEL=C7
s 1300 670 1330 670 11987
a 0 sp 3 0 1310 670 hln 100 LABEL=C7
w 11990
a 0 sp 3 0 1310 770 hln 100 LABEL=C9
s 1300 770 1330 770 11989
a 0 sp 3 0 1310 770 hln 100 LABEL=C9
w 11992
a 0 sp 3 0 1310 780 hln 100 LABEL=C10
s 1300 780 1330 780 11991
a 0 sp 3 0 1310 780 hln 100 LABEL=C10
w 11994
a 0 sp 3 0 1310 760 hln 100 LABEL=C8
s 1300 760 1330 760 11993
a 0 sp 3 0 1310 760 hln 100 LABEL=C8
w 11996
s 1320 300 1330 300 11995
s 1330 390 1330 300 11997
s 1330 390 1370 390 11999
s 1330 300 1340 300 12001
w 12004
s 1020 280 1140 280 12003
w 12006
s 1280 410 1280 830 12005
s 1280 830 1330 830 12007
s 920 410 1280 410 12011
s 1280 410 1370 410 12960
w 12014
a 0 sp 3 0 635 168 hln 100 LABEL=Comp_Out
s 710 170 630 170 12716
a 0 sp 3 0 635 168 hln 100 LABEL=Comp_Out
s 940 270 950 270 12015
s 940 270 940 330 12017
s 940 330 950 330 12019
s 830 270 940 270 12023
s 830 390 840 390 12021
s 830 270 830 390 12025
s 840 390 860 390 12036
s 710 170 710 200 12720
s 830 200 830 270 12954
s 710 200 710 230 12955
s 710 200 830 200 12952
w 12039
s 920 450 1230 450 12038
s 920 490 920 450 12040
s 1230 450 1230 300 12042
s 920 490 960 490 12044
s 1230 300 1250 300 12046
s 720 450 750 450 12050
s 750 450 920 450 12054
s 750 450 750 750 12052
s 750 750 760 750 12055
w 12058
s 1020 340 1050 340 12057
w 12060
s 1120 350 1130 350 12059
s 1130 300 1140 300 12061
s 1130 350 1130 300 12063
w 12066
s 1120 500 1370 500 12065
w 12068
s 1440 510 1450 510 12067
w 12070
s 1440 460 1450 460 12069
w 12072
s 1370 470 1350 470 12073
s 1350 570 1350 520 12075
s 1350 520 1350 470 12079
s 1350 520 1370 520 12077
s 1030 570 1350 570 12080
s 1350 570 1450 570 12082
w 12085
s 1440 400 1450 400 12084
w 12087
s 1420 310 1420 360 12086
s 1410 310 1420 310 12088
s 1420 310 1450 310 12090
s 1350 360 1350 450 12092
s 1350 360 1420 360 12094
s 1370 450 1350 450 12096
w 12099
s 1320 320 1340 320 12109
s 920 390 920 380 12106
s 920 350 920 290 12693
s 920 350 950 350 12104
s 920 290 950 290 12111
s 1320 380 1320 320 12694
s 920 380 920 350 12695
s 920 380 1320 380 12958
w 12114
s 170 700 170 610 12113
s 170 700 190 700 12115
s 110 610 170 610 12117
s 170 610 780 610 12119
w 12122
s 430 640 430 670 12121
s 430 670 430 680 12123
s 310 640 430 640 12125
s 310 680 310 670 12127
s 310 670 310 640 12129
s 190 640 310 640 12131
s 190 680 190 670 12133
s 190 670 190 640 12135
s 160 640 190 640 12961
w 12142
s 310 740 310 750 12141
s 310 750 310 780 12143
s 310 780 430 780 12145
s 190 780 190 750 12149
s 190 750 190 740 12153
s 190 780 310 780 12151
s 430 740 430 750 12154
s 430 750 430 780 12156
s 180 780 190 780 12158
w 12161
a 0 sp 3 0 263 735 hln 100 LABEL=C3
s 260 740 280 740 12170
a 0 sp 3 0 263 735 hln 100 LABEL=C3
a 0 sp 3 0 263 735 hln 100 LABEL=C3
s 250 740 260 740 12166
s 260 740 260 760 12168
s 290 700 310 700 12162
s 290 760 290 700 12164
s 260 760 290 760 12171
w 12174
a 0 sp 3 0 262 675 hln 100 LABEL=C0
s 260 680 280 680 12183
a 0 sp 3 0 262 675 hln 100 LABEL=C0
a 0 sp 3 0 262 675 hln 100 LABEL=C0
a 0 sp 3 0 262 675 hln 100 LABEL=C0
a 0 sp 3 0 262 675 hln 100 LABEL=C0
s 250 680 260 680 12179
s 260 680 260 650 12181
s 180 650 180 720 12175
s 180 720 190 720 12177
s 180 650 260 650 12184
w 12187
a 0 sp 3 0 262 695 hln 100 LABEL=C1
s 250 700 280 700 12186
a 0 sp 3 0 262 695 hln 100 LABEL=C1
w 12189
a 0 sp 3 0 262 715 hln 100 LABEL=C2
s 250 720 280 720 12188
a 0 sp 3 0 262 715 hln 100 LABEL=C2
w 12191
a 0 sp 3 0 380 734 hln 100 LABEL=C7
s 380 740 400 740 12200
a 0 sp 3 0 380 734 hln 100 LABEL=C7
a 0 sp 3 0 380 734 hln 100 LABEL=C7
a 0 sp 3 0 380 734 hln 100 LABEL=C7
a 0 sp 3 0 380 734 hln 100 LABEL=C7
s 370 740 380 740 12194
s 380 760 410 760 12196
s 380 740 380 760 12198
s 410 700 430 700 12192
s 410 700 410 760 12201
w 12204
a 0 sp 3 0 381 715 hln 100 LABEL=C6
s 370 720 400 720 12203
a 0 sp 3 0 381 715 hln 100 LABEL=C6
w 12206
a 0 sp 3 0 381 695 hln 100 LABEL=C5
s 370 700 400 700 12205
a 0 sp 3 0 381 695 hln 100 LABEL=C5
w 12208
a 0 sp 3 0 381 675 hln 100 LABEL=C4
s 380 680 400 680 12217
a 0 sp 3 0 381 675 hln 100 LABEL=C4
a 0 sp 3 0 381 675 hln 100 LABEL=C4
a 0 sp 3 0 381 675 hln 100 LABEL=C4
a 0 sp 3 0 381 675 hln 100 LABEL=C4
s 370 680 380 680 12213
s 380 680 380 650 12215
s 300 650 300 720 12209
s 300 720 310 720 12211
s 300 650 380 650 12218
w 12221
a 0 sp 3 0 505 678 hln 100 LABEL=C8
s 500 680 520 680 12230
a 0 sp 3 0 505 678 hln 100 LABEL=C8
a 0 sp 3 0 505 678 hln 100 LABEL=C8
a 0 sp 3 0 505 678 hln 100 LABEL=C8
a 0 sp 3 0 505 678 hln 100 LABEL=C8
s 490 680 500 680 12226
s 500 680 500 650 12228
s 420 650 420 720 12222
s 420 720 430 720 12224
s 420 650 500 650 12231
w 12234
a 0 sp 3 0 502 695 hln 100 LABEL=C9
s 490 700 520 700 12233
a 0 sp 3 0 502 695 hln 100 LABEL=C9
w 12236
a 0 sp 3 0 499 715 hln 100 LABEL=C10
s 490 720 520 720 12235
a 0 sp 3 0 499 715 hln 100 LABEL=C10
w 12238
s 830 760 890 760 12237
w 12240
s 730 470 730 420 12239
s 720 470 730 470 12241
s 730 690 730 470 12243
s 780 690 730 690 12245
s 730 420 760 420 12247
w 12492
s 830 410 860 410 12491
w 12494
a 0 s 3 0 656 691 hln 100 LABEL=C12
s 630 690 650 690 12506
a 0 s 3 0 628 686 hln 100 LABEL=C12
s 650 480 660 480 12493
s 650 480 650 440 12497
s 760 400 650 400 12499
s 650 440 650 400 12503
s 660 440 650 440 12501
s 650 690 650 480 12504
s 650 810 650 690 12508
w 12511
a 0 s 3 0 1309 800 hln 100 LABEL=C12
s 1300 800 1330 800 12510
a 0 s 3 0 1309 800 hln 100 LABEL=C12
w 12513
a 0 sp 3 0 499 735 hln 100 LABEL=C11
s 500 740 520 740 12512
a 0 sp 3 0 499 735 hln 100 LABEL=C11
a 0 sp 3 0 499 735 hln 100 LABEL=C11
a 0 sp 3 0 499 735 hln 100 LABEL=C11
a 0 sp 3 0 499 735 hln 100 LABEL=C11
s 540 700 540 630 12518
s 540 630 630 630 12699
s 540 700 570 700 12516
s 540 760 540 700 12520
s 630 630 630 460 12702
s 500 760 540 760 12526
s 630 460 660 460 12704
s 500 740 500 760 12522
s 490 740 500 740 12524
w 12529
s 570 720 560 720 12528
s 570 680 560 680 12530
s 560 680 560 720 12532
w 12723
a 0 sp 3 0 510 203 hln 100 LABEL=Integ
s 500 190 520 190 12722
a 0 sp 3 0 510 203 hln 100 LABEL=Integ
s 520 180 520 190 12724
s 520 190 530 190 12726
s 530 190 550 190 12728
w 12731
s 300 250 340 250 12730
s 300 290 330 290 12732
s 300 290 300 250 12734
s 170 250 300 250 12736
w 12739
s 710 300 710 290 12748
s 520 290 580 290 12740
s 580 290 580 300 12742
s 580 290 640 290 12744
s 640 290 640 300 12746
s 710 290 710 270 12752
s 640 290 710 290 12750
w 12754
s 350 210 380 210 12753
s 380 210 380 250 12757
s 380 250 380 260 12761
s 350 250 380 250 12759
w 12763
s 120 280 250 280 12762
s 250 280 250 210 12764
s 250 210 340 210 12766
w 12769
s 170 210 170 200 12768
s 170 200 200 200 12770
s 200 200 200 210 12772
w 12775
s 120 250 160 250 12774
w 12777
s 130 200 130 140 12776
s 130 200 160 200 12778
s 160 200 160 210 12780
s 120 140 130 140 12782
s 160 140 160 150 12784
s 130 140 160 140 12786
w 12789
s 170 150 170 140 12788
s 170 140 200 140 12790
s 200 140 200 150 12792
w 12795
s 120 190 160 190 12794
w 12797
s 340 170 350 170 12804
s 260 150 250 150 12798
s 250 150 250 110 12800
s 250 110 350 110 12802
s 350 170 360 170 12808
s 350 110 350 170 12806
w 12810
a 0 sp 3 0 412 285 hln 100 LABEL=Zero
s 410 290 410 210 12809
a 0 sp 3 0 412 285 hln 100 LABEL=Zero
s 360 290 410 290 12811
s 410 210 420 210 12813
s 410 290 450 290 12815
w 12818
s 400 170 410 170 12817
s 410 170 410 150 12819
s 410 170 420 170 12821
s 410 150 520 150 12823
s 520 150 550 150 12825
w 12828
s 220 190 220 400 12827
s 220 190 260 190 12829
s 170 190 220 190 12831
s 310 400 310 380 12833
s 220 400 310 400 12835
s 160 400 220 400 12837
s 310 450 310 400 12839
w 12842
s 310 460 310 480 12841
s 310 480 420 480 12843
s 420 460 420 480 12845
s 530 480 530 410 12847
s 420 480 460 480 12851
s 460 480 530 480 12855
s 460 480 460 420 12853
w 12857
s 310 350 310 370 12856
s 310 350 420 350 12860
s 420 350 460 350 12864
s 420 370 420 350 12862
s 460 350 460 390 12865
w 12868
s 270 380 260 380 12867
s 260 460 260 380 12869
s 270 460 260 460 12871
s 260 500 260 460 12873
w 12876
s 130 400 130 360 12875
s 150 360 130 360 12877
s 130 400 150 400 12879
w 12882
s 120 450 270 450 12881
w 12884
s 510 250 490 250 12883
s 490 250 490 260 12885
w 12888
s 510 370 530 370 12887
s 510 370 510 380 12889
w 12892
s 540 410 560 410 12891
w 12894
s 490 290 510 290 12893
w 12896
s 540 370 540 320 12895
s 120 320 160 320 12899
s 160 320 540 320 12903
s 160 320 160 360 12901
s 540 250 520 250 12904
s 540 250 540 320 12906
w 12909
s 120 340 370 340 12908
s 370 340 370 370 12910
s 370 370 380 370 12912
w 12915
s 380 380 370 380 12914
s 370 400 370 380 12916
s 420 400 420 380 12918
s 370 400 420 400 12920
s 420 450 420 400 12922
s 370 460 380 460 12924
s 370 400 370 460 12926
s 370 460 370 500 12928
w 12931
s 640 330 640 340 12930
s 610 350 610 340 12932
s 610 340 640 340 12934
s 580 330 580 340 12936
s 580 340 610 340 12938
w 12941
s 250 430 350 430 12940
s 350 430 350 450 12942
s 250 430 250 370 12944
s 120 430 250 430 12946
s 350 450 380 450 12948
s 250 370 270 370 12950
w 12965
s 840 590 870 590 11849
w 12971
s 90 930 90 940 12970
s 90 940 120 940 12972
s 120 940 120 890 12974
s 120 890 150 890 12976
b 12555
a 0 s 3 0 1425 804 hln 100 LABEL=D[12:0]
s 1420 810 1450 810 12534
a 0 s 3 0 1425 804 hln 100 LABEL=D[12:0]
s 1420 760 1420 770 12554
s 1420 770 1420 780 12556
s 1420 780 1420 790 12558
s 1420 790 1420 800 12560
s 1420 800 1420 810 12562
s 1420 590 1420 600 12564
s 1420 600 1420 610 12566
s 1420 610 1420 620 12567
s 1420 620 1420 630 12568
s 1420 630 1420 640 12569
s 1420 640 1420 650 12570
s 1420 650 1420 660 12571
s 1420 660 1420 670 12572
s 1420 670 1420 700 12573
s 1420 700 1420 760 12574
b 12649
a 0 sp 3 0 910 808 hln 100 LABEL=C[12:0]
s 960 810 1300 810 12689
a 0 sp 3 0 910 808 hln 100 LABEL=C[12:0]
a 0 s 3 0 910 808 hln 100 LABEL=C[12:0]
s 1300 790 1300 780 12648
s 1300 780 1300 770 12650
s 1300 770 1300 760 12652
s 1300 760 1300 670 12654
s 1300 670 1300 660 12656
s 1300 660 1300 650 12658
s 1300 650 1300 640 12660
s 1300 640 1300 630 12662
s 1300 630 1300 620 12664
s 1300 620 1300 610 12666
s 1300 610 1300 600 12668
s 1300 600 1300 590 12670
s 280 810 400 810 12633
s 280 810 280 740 12637
s 520 810 520 740 12641
s 400 810 520 810 12674
s 400 670 400 680 12645
s 520 810 650 810 12647
s 1300 810 1300 800 12672
s 1300 800 1300 790 12675
s 280 680 280 670 12676
s 280 700 280 680 12677
s 280 720 280 700 12678
s 280 740 280 720 12679
s 520 740 520 720 12680
s 520 720 520 700 12681
s 520 700 520 680 12682
s 520 680 520 670 12683
s 400 740 400 810 12684
s 400 720 400 740 12685
s 400 700 400 720 12686
s 400 680 400 700 12687
s 650 810 960 810 12688
@junction
j 90 890
+ p 6685 +
+ s 6693
j 150 930
+ p 6686 -
+ s 6691
j 150 890
+ p 6686 +
+ s 6695
j 220 930
+ p 6687 -
+ s 6697
j 220 890
+ p 6687 +
+ s 6701
j 280 930
+ p 6688 -
+ s 6699
j 280 890
+ p 6688 +
+ s 6703
j 330 930
+ p 7410 -
+ s 7411
j 330 890
+ p 7410 +
+ s 7413
j 1050 360
+ p 113 B
+ w 11806
j 1070 500
+ p 117 A
+ w 11806
j 1030 500
+ p 118 Y
+ w 11806
j 1040 500
+ w 11806
+ w 11806
j 780 710
+ p 1545 B
+ w 11814
j 760 770
+ p 8898 B
+ w 11814
j 630 710
+ p 248 \Q\
+ w 11814
j 730 710
+ w 11814
+ w 11814
j 900 640
+ p 6558 \CLR\
+ w 11822
j 960 580
+ p 143 B
+ w 11822
j 850 700
+ p 1545 Y
+ w 11822
j 900 700
+ w 11822
+ w 11822
j 1210 290
+ p 111 Y
+ w 11830
j 780 590
+ p 6565 D
+ w 11830
j 1250 290
+ p 119 A
+ w 11830
j 1220 290
+ w 11830
+ w 11830
j 900 560
+ p 6558 \PRE\
+ w 11842
j 900 550
+ s 10968
+ w 11842
j 870 590
+ p 6558 D
+ w 12965
j 840 590
+ p 6565 Q
+ w 12965
j 810 640
+ p 6565 \CLR\
+ w 11938
j 1360 870
+ p 6598 \CLR\
+ w 11863
j 1360 710
+ p 6579 \CLR\
+ w 11863
j 600 750
+ p 248 \CLR\
+ w 11863
j 130 780
+ p 2013 A
+ w 11863
j 690 510
+ p 249 \CLR\
+ w 11863
j 810 560
+ p 6565 \PRE\
+ w 11863
j 890 440
+ p 6572 \CLR\
+ w 11863
j 600 770
+ w 11863
+ w 11863
j 690 520
+ w 11863
+ w 11863
j 810 520
+ w 11863
+ w 11863
j 600 830
+ w 11863
+ w 11863
j 1240 830
+ w 11863
+ w 11863
j 110 830
+ s 2188
+ w 11863
j 120 830
+ w 11863
+ w 11863
j 1390 600
+ p 6579 Q1
+ w 11910
j 1390 610
+ p 6579 Q2
+ w 11912
j 1390 620
+ p 6579 Q3
+ w 11914
j 1390 630
+ p 6579 Q4
+ w 11916
j 1390 640
+ p 6579 Q5
+ w 11918
j 1390 650
+ p 6579 Q6
+ w 11920
j 1390 660
+ p 6579 Q7
+ w 11922
j 1390 670