Version 4
SHEET 1 2184 680
WIRE 256 -560 80 -560
WIRE 768 -560 256 -560
WIRE 1152 -560 768 -560
WIRE 1328 -560 1152 -560
WIRE 1760 -560 1328 -560
WIRE 1936 -560 1760 -560
WIRE 80 -512 80 -560
WIRE 768 -512 768 -560
WIRE 1152 -512 1152 -560
WIRE 1760 -512 1760 -560
WIRE 256 -432 256 -560
WIRE 1328 -432 1328 -560
WIRE 1936 -432 1936 -560
WIRE 80 -384 80 -432
WIRE 192 -384 80 -384
WIRE 1152 -384 1152 -432
WIRE 1264 -384 1152 -384
WIRE 1760 -384 1760 -432
WIRE 1872 -384 1760 -384
WIRE 1152 -368 1152 -384
WIRE 1760 -368 1760 -384
WIRE 768 -320 768 -432
WIRE 864 -320 768 -320
WIRE 256 -288 256 -336
WIRE 448 -288 256 -288
WIRE 1152 -288 1152 -304
WIRE 1328 -288 1328 -336
WIRE 1520 -288 1328 -288
WIRE 1760 -288 1760 -304
WIRE 1936 -288 1936 -336
WIRE 2128 -288 1936 -288
WIRE 864 -272 864 -320
WIRE 256 -256 256 -288
WIRE 1328 -256 1328 -288
WIRE 1936 -256 1936 -288
WIRE 448 -240 448 -288
WIRE 768 -240 768 -320
WIRE 1520 -240 1520 -288
WIRE 2128 -240 2128 -288
WIRE 80 -208 80 -384
WIRE 80 -208 -192 -208
WIRE 192 -208 80 -208
WIRE 1152 -208 1152 -224
WIRE 1264 -208 1152 -208
WIRE 1760 -208 1760 -224
WIRE 1872 -208 1760 -208
WIRE -192 -192 -192 -208
WIRE 448 -128 448 -160
WIRE 1520 -128 1520 -160
WIRE 2128 -128 2128 -160
WIRE -192 -80 -192 -112
WIRE 256 -80 256 -160
WIRE 768 -80 768 -160
WIRE 768 -80 256 -80
WIRE 1328 -80 1328 -160
WIRE 1328 -80 768 -80
WIRE 1936 -80 1936 -160
WIRE 1936 -80 1328 -80
WIRE 80 -16 80 -208
WIRE 1152 -16 1152 -208
WIRE 1152 -16 80 -16
WIRE 1760 -16 1760 -208
WIRE 1760 -16 1152 -16
FLAG 864 -272 0
FLAG 448 -128 0
FLAG -192 -80 0
FLAG 1520 -128 0
FLAG 2128 -128 0
DATAFLAG 128 -208 ""
DATAFLAG 1200 -208 ""
DATAFLAG 1808 -208 ""
SYMBOL voltage 768 -528 R0
WINDOW 123 0 0 Left 2
WINDOW 39 0 0 Left 2
SYMATTR InstName V1
SYMATTR Value 12
SYMBOL voltage 768 -256 R0
WINDOW 123 0 0 Left 2
WINDOW 39 0 0 Left 2
SYMATTR InstName V2
SYMATTR Value 12
SYMBOL res 432 -256 R0
SYMATTR InstName R2
SYMATTR Value 33
SYMBOL current 80 -512 R0
WINDOW 123 0 0 Left 2
WINDOW 39 0 0 Left 2
SYMATTR InstName I1
SYMATTR Value 4m
SYMBOL npn 192 -432 R0
SYMATTR InstName Q1
SYMBOL pnp 192 -160 M180
SYMATTR InstName Q2
SYMBOL voltage -192 -208 R0
WINDOW 123 24 44 Left 2
WINDOW 39 0 0 Left 0
SYMATTR InstName V3
SYMATTR Value SINE(-0.6097269 13 1k)
SYMBOL res 1504 -256 R0
SYMATTR InstName R1
SYMATTR Value 33
SYMBOL current 1152 -512 R0
WINDOW 123 0 0 Left 2
WINDOW 39 0 0 Left 2
SYMATTR InstName I2
SYMATTR Value 4m
SYMBOL npn 1264 -432 R0
SYMATTR InstName Q3
SYMBOL pnp 1264 -160 M180
SYMATTR InstName Q4
SYMBOL diode 1136 -368 R0
SYMATTR InstName D1
SYMBOL diode 1136 -288 R0
SYMATTR InstName D2
SYMBOL res 2112 -256 R0
SYMATTR InstName R3
SYMATTR Value 33
SYMBOL npn 1872 -432 R0
SYMATTR InstName Q5
SYMBOL pnp 1872 -160 M180
SYMATTR InstName Q6
SYMBOL diode 1744 -368 R0
SYMATTR InstName D3
SYMBOL diode 1744 -288 R0
SYMATTR InstName D4
SYMBOL res 1744 -528 R0
SYMATTR InstName R4
SYMATTR Value 330
TEXT -200 -592 Left 2 !;op
TEXT -280 -472 Left 2 !.tran 0 10m 0.001m
TEXT -296 -376 Left 2 ;.dc v3 -14 14 .001
