Version 4
SHEET 1 884 680
WIRE 256 -560 80 -560
WIRE 80 -512 80 -560
WIRE 256 -512 256 -560
WIRE 688 -512 256 -512
WIRE 256 -432 256 -512
WIRE 80 -384 80 -432
WIRE 192 -384 80 -384
WIRE -272 -288 -384 -288
WIRE 80 -288 80 -320
WIRE 80 -288 -272 -288
WIRE 256 -288 256 -336
WIRE 448 -288 256 -288
WIRE 80 -272 80 -288
WIRE 256 -256 256 -288
WIRE -384 -240 -384 -288
WIRE 448 -240 448 -288
WIRE 192 -208 80 -208
WIRE 80 -192 80 -208
WIRE 448 -128 448 -160
WIRE -384 -96 -384 -160
WIRE 256 -96 256 -160
WIRE 880 -96 256 -96
WIRE 80 -64 80 -112
WIRE 256 -64 256 -96
WIRE 256 -64 80 -64
WIRE 688 -48 688 -512
WIRE 688 -48 592 -48
WIRE 32 0 -144 0
WIRE 592 0 592 -48
WIRE 592 0 32 0
WIRE 688 0 688 -48
WIRE -144 48 -144 0
WIRE 32 128 32 0
WIRE 688 160 688 80
WIRE 784 160 688 160
WIRE -144 176 -144 128
WIRE -32 176 -144 176
WIRE 784 208 784 160
WIRE 688 240 688 160
WIRE -272 272 -272 -288
WIRE -144 272 -144 240
WIRE -144 272 -272 272
WIRE 32 272 32 224
WIRE 224 272 32 272
WIRE -144 288 -144 272
WIRE 32 304 32 272
WIRE 224 320 224 272
WIRE -32 352 -144 352
WIRE -144 368 -144 352
WIRE 224 432 224 400
WIRE 688 432 688 320
WIRE 880 432 880 -96
WIRE 880 432 688 432
WIRE 32 464 32 400
WIRE 688 464 688 432
WIRE 688 464 32 464
WIRE -144 496 -144 448
WIRE 32 496 32 464
WIRE 32 496 -144 496
FLAG 784 208 0
FLAG -384 -96 0
FLAG 448 -128 0
FLAG 224 432 0
DATAFLAG -80 176 ""
DATAFLAG 128 272 ""
DATAFLAG 272 -288 ""
DATAFLAG 144 -384 ""
SYMBOL voltage 688 -16 R0
WINDOW 123 0 0 Left 2
WINDOW 39 0 0 Left 2
SYMATTR InstName V1
SYMATTR Value 12
SYMBOL voltage 688 224 R0
WINDOW 123 0 0 Left 2
WINDOW 39 0 0 Left 2
SYMATTR InstName V2
SYMATTR Value 12
SYMBOL voltage -384 -256 R0
WINDOW 123 24 124 Left 2
WINDOW 39 0 0 Left 2
SYMATTR Value2 AC 1 0
SYMATTR InstName V3
SYMATTR Value SINE(0 10 1000 0 0 0 4)
SYMBOL diode 64 -384 R0
SYMATTR InstName D1
SYMBOL diode 64 -272 R0
SYMATTR InstName D2
SYMBOL res 432 -256 R0
SYMATTR InstName R2
SYMATTR Value 33
SYMBOL current 80 -512 R0
WINDOW 123 0 0 Left 2
WINDOW 39 0 0 Left 2
SYMATTR InstName I1
SYMATTR Value 3.1m
SYMBOL current 80 -192 R0
WINDOW 123 0 0 Left 2
WINDOW 39 0 0 Left 2
SYMATTR InstName I2
SYMATTR Value 3.1m
SYMBOL npn 192 -432 R0
SYMATTR InstName Q1
SYMBOL pnp 192 -160 M180
SYMATTR InstName Q2
SYMBOL diode -160 176 R0
SYMATTR InstName D3
SYMBOL diode -160 288 R0
SYMATTR InstName D4
SYMBOL res 208 304 R0
SYMATTR InstName R1
SYMATTR Value 33
SYMBOL npn -32 128 R0
SYMATTR InstName Q3
SYMBOL pnp -32 400 M180
SYMATTR InstName Q4
SYMBOL res -160 32 R0
SYMATTR InstName R3
SYMATTR Value 330
SYMBOL res -160 352 R0
SYMATTR InstName R4
SYMATTR Value 330
TEXT -504 -424 Left 2 !.tran 0 4m 0 .01m
TEXT -720 -408 Left 2 !.op
