Version 4
SHEET 1 1392 984
WIRE -432 208 -672 208
WIRE -160 208 -432 208
WIRE -672 320 -672 208
WIRE -432 352 -432 208
WIRE -160 352 -160 208
WIRE -832 368 -848 368
WIRE -736 368 -752 368
WIRE 128 400 -96 400
WIRE 128 432 128 400
WIRE -848 464 -848 368
WIRE -848 608 -848 544
WIRE -672 608 -672 416
WIRE -672 608 -848 608
WIRE -432 608 -432 432
WIRE -432 608 -672 608
WIRE -160 608 -160 448
WIRE -160 608 -432 608
WIRE 128 608 128 512
WIRE 128 608 -160 608
WIRE -432 656 -432 608
FLAG -432 656 0
SYMBOL voltage -432 336 R0
WINDOW 123 0 0 Left 0
WINDOW 39 0 0 Left 0
SYMATTR InstName V1
SYMATTR Value 6
SYMBOL current -848 544 R180
WINDOW 0 24 80 Left 2
WINDOW 3 24 0 Left 2
WINDOW 123 0 0 Left 0
WINDOW 39 0 0 Left 0
SYMATTR InstName I1
SYMATTR Value 40”
SYMBOL f 128 432 R0
SYMATTR InstName F1
SYMATTR Value v2
SYMATTR Value2 1
SYMBOL voltage -848 368 R270
WINDOW 0 -32 56 VBottom 2
WINDOW 3 32 56 VTop 2
WINDOW 123 0 0 Left 0
WINDOW 39 0 0 Left 0
SYMATTR InstName V2
SYMATTR Value 0
SYMBOL npn -736 320 R0
SYMATTR InstName Q1
SYMATTR Value 2N3904
SYMBOL pnp -96 352 M0
SYMATTR InstName Q2
SYMATTR Value 2N3906
TEXT 160 184 Right 2 !.dc v1 0 10 .001 i1 0 200u 20u
TEXT -832 200 Left 2 ;.op
