Version 4
SHEET 1 880 680
WIRE 160 112 96 112
WIRE 320 112 320 80
WIRE 320 112 240 112
WIRE 320 176 320 112
WIRE 192 192 192 176
WIRE -112 208 -128 208
WIRE -80 208 -112 208
WIRE 16 208 0 208
WIRE 96 208 96 112
WIRE 96 208 80 208
WIRE 160 208 96 208
WIRE 256 224 224 224
WIRE 160 240 96 240
WIRE 96 272 96 240
WIRE 320 304 320 272
WIRE 320 320 320 304
WIRE 192 416 192 256
WIRE 320 416 320 400
WIRE 320 416 192 416
FLAG -112 208 vi
FLAG 96 272 0
FLAG 192 176 vcc
FLAG 320 0 vcc
FLAG 320 416 -vcc
FLAG 320 304 v0
SYMBOL OpAmps\\opamp222 224 192 R0
SYMATTR InstName a
SYMBOL cap 80 192 R90
WINDOW 0 0 32 VBottom 2
WINDOW 3 32 32 VTop 2
SYMATTR InstName C1
SYMBOL res 256 96 R90
WINDOW 0 0 56 VBottom 2
WINDOW 3 -17 9 VTop 2
SYMATTR InstName Rf
SYMATTR Value 10k
SYMBOL res 16 192 R90
WINDOW 0 0 56 VBottom 2
WINDOW 3 32 56 VTop 2
SYMATTR InstName Rg
SYMATTR Value 1k
SYMBOL res 336 416 R180
WINDOW 0 36 76 Left 2
WINDOW 3 36 40 Left 2
SYMATTR InstName R1
SYMATTR Value 2k
SYMBOL res 336 96 R180
WINDOW 0 36 76 Left 2
WINDOW 3 36 40 Left 2
SYMATTR InstName R2
SYMATTR Value 10k
SYMBOL npn 256 176 R0
SYMATTR InstName Q1->hie=1k/hfe=200
SYMATTR Value ""
TEXT -160 40 Left 2 ;a: a0=100 / ri=500k / ro=100
