* prueba.cir




v1 1 0 12
x1  1 2 0 divisor

.subckt divisor 1 2 3

r1 1 2 10K
r2 2 3 20K

.ends divisor


.op

.end
