**********************************
**********************************
**
** Littelfuse, LP
** SCR SPICE Models
** EC103xx-SxSx
**
** T. Chenoski
** Irving Technical Center
**
** A 06/13/08
**
**********************************
**********************************
.SUBCKT EC103D1    1  2             3
*       TERMINALS: A  G             K
Qpnp    6          4  1             Pfor      OFF
Qnpn    4          6  5             Nfor      OFF
Rfor    6          4  5G
Rrev    1          4  5G
Rshort  6          5  1MEG
Rlat    2          6  9.09
Ron     3          5  513.4m
Dfor    6          4  Zbrk
Drev    1          4  Zbrk
Dgate   6          5  Zgate
.MODEL  Zbrk       D  (IS=3.2E-16   IBV=100U  BV=400)
.MODEL  Zgate      D  (IS=1E-16     IBV=100U  BV=10      VJ=0.3)
.MODEL  Pfor       PNP(IS=5E-15     BF=6.10   CJE=5p     CJC=2p     TF=0.3U)
.MODEL  Nfor       NPN(IS=1E-12     ISE=1E-9  BF=10.0    RC=0.45    CJE=30p     CJC=2p      TF=0.3U)
.ENDS

.SUBCKT EC103M1    1  2             3
*       TERMINALS: A  G             K
Qpnp    6          4  1             Pfor      OFF
Qnpn    4          6  5             Nfor      OFF
Rfor    6          4  5G
Rrev    1          4  5G
Rshort  6          5  1MEG
Rlat    2          6  9.09
Ron     3          5  513.4m
Dfor    6          4  Zbrk
Drev    1          4  Zbrk
Dgate   6          5  Zgate
.MODEL  Zbrk       D  (IS=3.2E-16   IBV=100U  BV=600)
.MODEL  Zgate      D  (IS=1E-16     IBV=100U  BV=10      VJ=0.3)
.MODEL  Pfor       PNP(IS=5E-15     BF=6.10   CJE=5p     CJC=2p     TF=0.3U)
.MODEL  Nfor       NPN(IS=1E-12     ISE=1E-9  BF=10.0    RC=0.45    CJE=30p     CJC=2p      TF=0.3U)
.ENDS

.SUBCKT EC103D2    1  2             3
*       TERMINALS: A  G             K
Qpnp    6          4  1             Pfor      OFF
Qnpn    4          6  5             Nfor      OFF
Rfor    6          4  5G
Rrev    1          4  5G
Rshort  6          5  1MEG
Rlat    2          6  9.09
Ron     3          5  513.4m
Dfor    6          4  Zbrk
Drev    1          4  Zbrk
Dgate   6          5  Zgate
.MODEL  Zbrk       D  (IS=3.2E-16   IBV=100U  BV=400)
.MODEL  Zgate      D  (IS=1E-16     IBV=100U  BV=10      VJ=0.3)
.MODEL  Pfor       PNP(IS=5E-15     BF=2.20   CJE=5p     CJC=2p     TF=0.3U)
.MODEL  Nfor       NPN(IS=1E-12     ISE=1E-9  BF=10.0    RC=0.45    CJE=30p     CJC=2p      TF=0.3U)
.ENDS

.SUBCKT EC103M2    1  2             3
*       TERMINALS: A  G             K
Qpnp    6          4  1             Pfor      OFF
Qnpn    4          6  5             Nfor      OFF
Rfor    6          4  5G
Rrev    1          4  5G
Rshort  6          5  1MEG
Rlat    2          6  9.09
Ron     3          5  513.4m
Dfor    6          4  Zbrk
Drev    1          4  Zbrk
Dgate   6          5  Zgate
.MODEL  Zbrk       D  (IS=3.2E-16   IBV=100U  BV=600)
.MODEL  Zgate      D  (IS=1E-16     IBV=100U  BV=10      VJ=0.3)
.MODEL  Pfor       PNP(IS=5E-15     BF=2.20   CJE=5p     CJC=2p     TF=0.3U)
.MODEL  Nfor       NPN(IS=1E-12     ISE=1E-9  BF=10.0    RC=0.45    CJE=30p     CJC=2p      TF=0.3U)
.ENDS

.SUBCKT EC103D     1  2             3
*       TERMINALS: A  G             K
Qpnp    6          4  1             Pfor      OFF
Qnpn    4          6  5             Nfor      OFF
Rfor    6          4  5G
Rrev    1          4  5G
Rshort  6          5  1MEG
Rlat    2          6  9.09
Ron     3          5  513.4m
Dfor    6          4  Zbrk
Drev    1          4  Zbrk
Dgate   6          5  Zgate
.MODEL  Zbrk       D  (IS=3.2E-16   IBV=100U  BV=400)
.MODEL  Zgate      D  (IS=1E-16     IBV=100U  BV=10      VJ=0.3)
.MODEL  Pfor       PNP(IS=5E-15     BF=1.10   CJE=5p     CJC=2p     TF=0.3U)
.MODEL  Nfor       NPN(IS=1E-12     ISE=1E-9  BF=10.0    RC=0.45    CJE=30p     CJC=2p      TF=0.3U)
.ENDS

.SUBCKT EC103M     1  2             3
*       TERMINALS: A  G             K
Qpnp    6          4  1             Pfor      OFF
Qnpn    4          6  5             Nfor      OFF
Rfor    6          4  5G
Rrev    1          4  5G
Rshort  6          5  1MEG
Rlat    2          6  9.09
Ron     3          5  513.4m
Dfor    6          4  Zbrk
Drev    1          4  Zbrk
Dgate   6          5  Zgate
.MODEL  Zbrk       D  (IS=3.2E-16   IBV=100U  BV=600)
.MODEL  Zgate      D  (IS=1E-16     IBV=100U  BV=10      VJ=0.3)
.MODEL  Pfor       PNP(IS=5E-15     BF=1.10   CJE=5p     CJC=2p     TF=0.3U)
.MODEL  Nfor       NPN(IS=1E-12     ISE=1E-9  BF=10.0    RC=0.45    CJE=30p     CJC=2p      TF=0.3U)
.ENDS

.SUBCKT EC103D3    1  2             3
*       TERMINALS: A  G             K
Qpnp    6          4  1             Pfor      OFF
Qnpn    4          6  5             Nfor      OFF
Rfor    6          4  5G
Rrev    1          4  5G
Rshort  6          5  1MEG
Rlat    2          6  9.09
Ron     3          5  513.4m
Dfor    6          4  Zbrk
Drev    1          4  Zbrk
Dgate   6          5  Zgate
.MODEL  Zbrk       D  (IS=3.2E-16   IBV=100U  BV=400)
.MODEL  Zgate      D  (IS=1E-16     IBV=100U  BV=10      VJ=0.3)
.MODEL  Pfor       PNP(IS=5E-15     BF=0.95   CJE=5p     CJC=2p     TF=0.3U)
.MODEL  Nfor       NPN(IS=1E-12     ISE=1E-9  BF=10.0    RC=0.45    CJE=30p     CJC=2p      TF=0.3U)
.ENDS

.SUBCKT EC103M3    1  2             3
*       TERMINALS: A  G             K
Qpnp    6          4  1             Pfor      OFF
Qnpn    4          6  5             Nfor      OFF
Rfor    6          4  5G
Rrev    1          4  5G
Rshort  6          5  1MEG
Rlat    2          6  9.09
Ron     3          5  513.4m
Dfor    6          4  Zbrk
Drev    1          4  Zbrk
Dgate   6          5  Zgate
.MODEL  Zbrk       D  (IS=3.2E-16   IBV=100U  BV=600)
.MODEL  Zgate      D  (IS=1E-16     IBV=100U  BV=10      VJ=0.3)
.MODEL  Pfor       PNP(IS=5E-15     BF=0.95   CJE=5p     CJC=2p     TF=0.3U)
.MODEL  Nfor       NPN(IS=1E-12     ISE=1E-9  BF=10.0    RC=0.45    CJE=30p     CJC=2p      TF=0.3U)
.ENDS

.SUBCKT S4S1       1  2             3
*       TERMINALS: A  G             K
Qpnp    6          4  1             Pfor      OFF
Qnpn    4          6  5             Nfor      OFF
Rfor    6          4  5G
Rrev    1          4  5G
Rshort  6          5  1MEG
Rlat    2          6  9.09
Ron     3          5  513.4m
Dfor    6          4  Zbrk
Drev    1          4  Zbrk
Dgate   6          5  Zgate
.MODEL  Zbrk       D  (IS=3.2E-16   IBV=100U  BV=400)
.MODEL  Zgate      D  (IS=1E-16     IBV=100U  BV=10      VJ=0.3)
.MODEL  Pfor       PNP(IS=5E-15     BF=6.10   CJE=5p     CJC=2p     TF=0.3U)
.MODEL  Nfor       NPN(IS=1E-12     ISE=1E-9  BF=10.0    RC=0.45    CJE=30p     CJC=2p      TF=0.3U)
.ENDS

.SUBCKT S6S1       1  2             3
*       TERMINALS: A  G             K
Qpnp    6          4  1             Pfor      OFF
Qnpn    4          6  5             Nfor      OFF
Rfor    6          4  5G
Rrev    1          4  5G
Rshort  6          5  1MEG
Rlat    2          6  9.09
Ron     3          5  513.4m
Dfor    6          4  Zbrk
Drev    1          4  Zbrk
Dgate   6          5  Zgate
.MODEL  Zbrk       D  (IS=3.2E-16   IBV=100U  BV=600)
.MODEL  Zgate      D  (IS=1E-16     IBV=100U  BV=10      VJ=0.3)
.MODEL  Pfor       PNP(IS=5E-15     BF=6.10   CJE=5p     CJC=2p     TF=0.3U)
.MODEL  Nfor       NPN(IS=1E-12     ISE=1E-9  BF=10.0    RC=0.45    CJE=30p     CJC=2p      TF=0.3U)
.ENDS

.SUBCKT S4S2       1  2             3
*       TERMINALS: A  G             K
Qpnp    6          4  1             Pfor      OFF
Qnpn    4          6  5             Nfor      OFF
Rfor    6          4  5G
Rrev    1          4  5G
Rshort  6          5  1MEG
Rlat    2          6  9.09
Ron     3          5  513.4m
Dfor    6          4  Zbrk
Drev    1          4  Zbrk
Dgate   6          5  Zgate
.MODEL  Zbrk       D  (IS=3.2E-16   IBV=100U  BV=400)
.MODEL  Zgate      D  (IS=1E-16     IBV=100U  BV=10      VJ=0.3)
.MODEL  Pfor       PNP(IS=5E-15     BF=2.20   CJE=5p     CJC=2p     TF=0.3U)
.MODEL  Nfor       NPN(IS=1E-12     ISE=1E-9  BF=10.0    RC=0.45    CJE=30p     CJC=2p      TF=0.3U)
.ENDS

.SUBCKT S6S2       1  2             3
*       TERMINALS: A  G             K
Qpnp    6          4  1             Pfor      OFF
Qnpn    4          6  5             Nfor      OFF
Rfor    6          4  5G
Rrev    1          4  5G
Rshort  6          5  1MEG
Rlat    2          6  9.09
Ron     3          5  513.4m
Dfor    6          4  Zbrk
Drev    1          4  Zbrk
Dgate   6          5  Zgate
.MODEL  Zbrk       D  (IS=3.2E-16   IBV=100U  BV=600)
.MODEL  Zgate      D  (IS=1E-16     IBV=100U  BV=10      VJ=0.3)
.MODEL  Pfor       PNP(IS=5E-15     BF=2.20   CJE=5p     CJC=2p     TF=0.3U)
.MODEL  Nfor       NPN(IS=1E-12     ISE=1E-9  BF=10.0    RC=0.45    CJE=30p     CJC=2p      TF=0.3U)
.ENDS

.SUBCKT S4S        1  2             3
*       TERMINALS: A  G             K
Qpnp    6          4  1             Pfor      OFF
Qnpn    4          6  5             Nfor      OFF
Rfor    6          4  5G
Rrev    1          4  5G
Rshort  6          5  1MEG
Rlat    2          6  9.09
Ron     3          5  513.4m
Dfor    6          4  Zbrk
Drev    1          4  Zbrk
Dgate   6          5  Zgate
.MODEL  Zbrk       D  (IS=3.2E-16   IBV=100U  BV=400)
.MODEL  Zgate      D  (IS=1E-16     IBV=100U  BV=10      VJ=0.3)
.MODEL  Pfor       PNP(IS=5E-15     BF=1.10   CJE=5p     CJC=2p     TF=0.3U)
.MODEL  Nfor       NPN(IS=1E-12     ISE=1E-9  BF=10.0    RC=0.45    CJE=30p     CJC=2p      TF=0.3U)
.ENDS

.SUBCKT S6S        1  2             3
*       TERMINALS: A  G             K
Qpnp    6          4  1             Pfor      OFF
Qnpn    4          6  5             Nfor      OFF
Rfor    6          4  5G
Rrev    1          4  5G
Rshort  6          5  1MEG
Rlat    2          6  9.09
Ron     3          5  513.4m
Dfor    6          4  Zbrk
Drev    1          4  Zbrk
Dgate   6          5  Zgate
.MODEL  Zbrk       D  (IS=3.2E-16   IBV=100U  BV=600)
.MODEL  Zgate      D  (IS=1E-16     IBV=100U  BV=10      VJ=0.3)
.MODEL  Pfor       PNP(IS=5E-15     BF=1.10   CJE=5p     CJC=2p     TF=0.3U)
.MODEL  Nfor       NPN(IS=1E-12     ISE=1E-9  BF=10.0    RC=0.45    CJE=30p     CJC=2p      TF=0.3U)
.ENDS

.SUBCKT S4S3       1  2             3
*       TERMINALS: A  G             K
Qpnp    6          4  1             Pfor      OFF
Qnpn    4          6  5             Nfor      OFF
Rfor    6          4  5G
Rrev    1          4  5G
Rshort  6          5  1MEG
Rlat    2          6  9.09
Ron     3          5  513.4m
Dfor    6          4  Zbrk
Drev    1          4  Zbrk
Dgate   6          5  Zgate
.MODEL  Zbrk       D  (IS=3.2E-16   IBV=100U  BV=400)
.MODEL  Zgate      D  (IS=1E-16     IBV=100U  BV=10      VJ=0.3)
.MODEL  Pfor       PNP(IS=5E-15     BF=0.95   CJE=5p     CJC=2p     TF=0.3U)
.MODEL  Nfor       NPN(IS=1E-12     ISE=1E-9  BF=10.0    RC=0.45    CJE=30p     CJC=2p      TF=0.3U)
.ENDS

.SUBCKT S6S3       1  2             3
*       TERMINALS: A  G             K
Qpnp    6          4  1             Pfor      OFF
Qnpn    4          6  5             Nfor      OFF
Rfor    6          4  5G
Rrev    1          4  5G
Rshort  6          5  1MEG
Rlat    2          6  9.09
Ron     3          5  513.4m
Dfor    6          4  Zbrk
Drev    1          4  Zbrk
Dgate   6          5  Zgate
.MODEL  Zbrk       D  (IS=3.2E-16   IBV=100U  BV=600)
.MODEL  Zgate      D  (IS=1E-16     IBV=100U  BV=10      VJ=0.3)
.MODEL  Pfor       PNP(IS=5E-15     BF=0.95   CJE=5p     CJC=2p     TF=0.3U)
.MODEL  Nfor       NPN(IS=1E-12     ISE=1E-9  BF=10.0    RC=0.45    CJE=30p     CJC=2p      TF=0.3U)
.ENDS


* TRIAC L0103DE
.SUBCKT L0103DE 1 2 3 
* TERMINALS: MT2 G MT1 
Qnpn1 5 4 3 NoutF
Qpnp1 4 5 7 PoutF
Qnpn2 11 6 7 NoutR 
Qpnp2 6 11 3 PoutR
Dfor 4 5 DZ 
Drev 6 11 DZ
Rfor 4 6 12MEG 
Ron 1 7 300m 
Rhold 7 6 250 
RGP 8 3 350 
RG 2 8 150 
RS 8 4 250 
DN 9 2 DIN
RN 9 3 6.0 
GNN 6 7 9 3 0.2 
GNP 4 5 9 3 2.0 
DP 2 10 DIP
RP 10 3 4.0 
GP 7 6 10 3 0.5 
.MODEL DIN D (IS=382F) 
.MODEL DIP D (IS=382F N=1.19)
 .MODEL DZ D (IS=382F N=1.5 IBV=50U BV=400)
 .MODEL PoutF PNP (IS=382F BF=1 CJE=190p TF=0.3U) 
.MODEL NoutF NPN (IS=382F BF=3 CJE=190p CJC=38p TF=0.3U)
 .MODEL PoutR PNP (IS=382F BF=5 CJE=190p TF=0.3U) 
.MODEL NoutR NPN (IS=382F BF=0.5 CJE=190p CJC=38p TF=0.3U) 
.ENDS 
*TRIAC L0103ME
.SUBCKT L0103ME 1 2 3 
* TERMINALS: MT2 G MT1 
Qnpn1 5 4 3 NoutF OFF Qpnp1 4 5 7 PoutF 
Qnpn2 11 6 7 NoutR 
 Qpnp2 6 11 3 PoutR 
 Dfor 4 5 DZ 
 Drev 6 11 DZ 
Rfor 4 6 12MEG 
Ron 1 7 300m 
Rhold 7 6 250 
RGP 8 3 350 
RG 2 8 150 
RS 8 4 250 
DN 9 2 DIN 
RN 9 3 6.0 
GNN 6 7 9 3 0.2 
GNP 4 5 9 3 2.0 
DP 2 10 DIP 
RP 10 3 4.0 
GP 7 6 10 3 0.5 
.MODEL DIN D (IS=382F)
.MODEL DIP D (IS=382F N=1.19) 
.MODEL DZ D (IS=382F N=1.5 IBV=50U BV=600) 
.MODEL PoutF PNP (IS=382F BF=1 CJE=190p TF=0.3U) 
.MODEL NoutF NPN (IS=382F BF=3 CJE=190p CJC=38p TF=0.3U) 
.MODEL PoutR PNP (IS=382F BF=5 CJE=190p TF=0.3U) 
.MODEL NoutR NPN (IS=382F BF=0.5 CJE=190p CJC=38p TF=0.3U) 
.ENDS
*TRIAC L0103NE
.SUBCKT L0103NE 1 2 3 
* TERMINALS: MT2 G MT1 
Qnpn1 5 4 3 NoutF OFF Qpnp1 4 5 7 PoutF 
Qnpn2 11 6 7 NoutR 
Qpnp2 6 11 3 PoutR 
Dfor 4 5 DZ 
Drev 6 11 DZ 
Rfor 4 6 12MEG 
Ron 1 7 300m 
Rhold 7 6 250 
RGP 8 3 350 
RG 2 8 150 
RS 8 4 250 
DN 9 2 DIN 
RN 9 3 6.0 
GNN 6 7 9 3 0.2 
GNP 4 5 9 3 2.0 
DP 2 10 DIP 
RP 10 3 4.0 
GP 7 6 10 3 0.5 
.MODEL DIN D (IS=382F) 
.MODEL DIP D (IS=382F N=1.19) 
.MODEL DZ D (IS=382F N=1.5 IBV=50U BV=800) 
.MODEL PoutF PNP (IS=382F BF=1 CJE=190p TF=0.3U) 
.MODEL NoutF NPN (IS=382F BF=3 CJE=190p CJC=38p TF=0.3U) 
.MODEL PoutR PNP (IS=382F BF=5 CJE=190p TF=0.3U) 
.MODEL NoutR NPN (IS=382F BF=0.5 CJE=190p CJC=38p TF=0.3U) 
.ENDS 
*TRIAC L0103DT
.SUBCKT L0103DT 1 2 3 
* TERMINALS: MT2 G MT1 
Qnpn1 5 4 3 NoutF 
Qpnp1 4 5 7 PoutF 
Qnpn2 11 6 7 NoutR 
Qpnp2 6 11 3 PoutR 
Dfor 4 5 DZ 
Drev 6 11 DZ 
Rfor 4 6 12MEG 
Ron 1 7 300m 
Rhold 7 6 250 
RGP 8 3 350 
RG 2 8 150 
RS 8 4 250 
DN 9 2 DIN 
RN 9 3 6.0 
GNN 6 7 9 3 0.2 
GNP 4 5 9 3 2.0 
DP 2 10 DIP 
RP 10 3 4.0 
GP 7 6 10 3 0.5 
.MODEL DIN D (IS=382F) 
.MODEL DIP D (IS=382F N=1.19)
.MODEL DZ D (IS=382F N=1.5 IBV=50U BV=400) 
.MODEL PoutF PNP (IS=382F BF=1 CJE=190p TF=0.3U) 
.MODEL NoutF NPN (IS=382F BF=3 CJE=190p CJC=38p TF=0.3U) 
.MODEL PoutR PNP (IS=382F BF=5 CJE=190p TF=0.3U) 
.MODEL NoutR NPN (IS=382F BF=0.5 CJE=190p CJC=38p TF=0.3U) 
.ENDS 

*TRIAC L0103MT
.SUBCKT L0103MT 1 2 3 
* TERMINALS: MT2 G MT1 
Qnpn1 5 4 3 NoutF OFF Qpnp1 4 5 7 PoutF 
Qnpn2 11 6 7 NoutR 
Qpnp2 6 11 3 PoutR 
Dfor 4 5 DZ 
Drev 6 11 DZ 
Rfor 4 6 12MEG 
Ron 1 7 300m 
Rhold 7 6 250 
RGP 8 3 350 
RG 2 8 150 
RS 8 4 250 
DN 9 2 DIN 
RN 9 3 6.0 
GNN 6 7 9 3 0.2 
GNP 4 5 9 3 2.0 
DP 2 10 DIP 
RP 10 3 4.0 
GP 7 6 10 3 0.5 
.MODEL DIN D (IS=382F) 
.MODEL DIP D (IS=382F N=1.19) 
.MODEL DZ D (IS=382F N=1.5 IBV=50U BV=600) 
.MODEL PoutF PNP (IS=382F BF=1 CJE=190p TF=0.3U) 
.MODEL NoutF NPN (IS=382F BF=3 CJE=190p CJC=38p TF=0.3U) 
.MODEL PoutR PNP (IS=382F BF=5 CJE=190p TF=0.3U) 
.MODEL NoutR NPN (IS=382F BF=0.5 CJE=190p CJC=38p TF=0.3U) 
.ENDS 
*TRIAC L0103NT
.SUBCKT L0103NT 1 2 3 
* TERMINALS: MT2 G MT1 
Qnpn1 5 4 3 NoutF 
Qpnp1 4 5 7 PoutF 
Qnpn2 11 6 7 NoutR 
Qpnp2 6 11 3 PoutR 
Dfor 4 5 DZ 
Drev 6 11 DZ 
Rfor 4 6 12MEG 
Ron 1 7 300m 
Rhold 7 6 250 
RGP 8 3 350 
RG 2 8 150 
RS 8 4 250 
DN 9 2 DIN 
RN 9 3 6.0 
GNN 6 7 9 3 0.2 
GNP 4 5 9 3 2.0 
DP 2 10 DIP 
RP 10 3 4.0 
GP 7 6 10 3 0.5 
.MODEL DIN D (IS=382F) 
.MODEL DIP D (IS=382F N=1.19)
.MODEL DZ D (IS=382F N=1.5 IBV=50U BV=800) 
.MODEL PoutF PNP (IS=382F BF=1 CJE=190p TF=0.3U) 
.MODEL NoutF NPN (IS=382F BF=3 CJE=190p CJC=38p TF=0.3U) 
.MODEL PoutR PNP (IS=382F BF=5 CJE=190p TF=0.3U) 
.MODEL NoutR NPN (IS=382F BF=0.5 CJE=190p CJC=38p TF=0.3U) 
.ENDS
*TRIAC L0107DE
 .SUBCKT L0107DE 1 2 3 
* TERMINALS: MT2 G MT1 
Qnpn1 5 4 3 NoutF 
Qpnp1 4 5 7 PoutF 
Qnpn2 11 6 7 NoutR 
Qpnp2 6 11 3 PoutR 
Dfor 4 5 DZ 
Drev 6 11 DZ 
Rfor 4 6 12MEG 
Ron 1 7 300m 
Rhold 7 6 150 
RGP 8 3 350 
RG 2 8 150 
RS 8 4 250 
DN 9 2 DIN 
RN 9 3 6.0 
GNN 6 7 9 3 0.2 
GNP 4 5 9 3 0.521 
DP 2 10 DIP 
RP 10 3 4.0 
GP 7 6 10 3 0.15 
.MODEL DIN D (IS=382F) 
.MODEL DIP D (IS=382F N=1.19) 
.MODEL DZ D (IS=382F N=1.5 IBV=50U BV=400) 
.MODEL PoutF PNP (IS=382F BF=1 CJE=190p TF=0.3U)
.MODEL NoutF NPN (IS=382F BF=3 CJE=190p CJC=38p TF=0.3U) 
.MODEL PoutR PNP (IS=382F BF=5 CJE=190p TF=0.3U) 
.MODEL NoutR NPN (IS=382F BF=0.5 CJE=190p CJC=38p TF=0.3U) 
.ENDS

*TRIAC L0107ME
 .SUBCKT L0107ME 1 2 3 
* TERMINALS: MT2 G MT1 
Qnpn1 5 4 3 NoutF 
Qpnp1 4 5 7 PoutF 
Qnpn2 11 6 7 NoutR 
Qpnp2 6 11 3 PoutR 
Dfor 4 5 DZ 
Drev 6 11 DZ 
Rfor 4 6 12MEG 
Ron 1 7 300m 
Rhold 7 6 150 
RGP 8 3 350 
RG 2 8 150 
RS 8 4 250 
DN 9 2 DIN 
RN 9 3 6.0 
GNN 6 7 9 3 0.2 
GNP 4 5 9 3 0.521 
DP 2 10 DIP 
RP 10 3 4.0 
GP 7 6 10 3 0.15 
.MODEL DIN D (IS=382F) 
.MODEL DIP D (IS=382F N=1.19) 
.MODEL DZ D (IS=382F N=1.5 IBV=50U BV=600) 
.MODEL PoutF PNP (IS=382F BF=1 CJE=190p TF=0.3U) 
.MODEL NoutF NPN (IS=382F BF=3 CJE=190p CJC=38p TF=0.3U) 
.MODEL PoutR PNP (IS=382F BF=5 CJE=190p TF=0.3U) 
.MODEL NoutR NPN (IS=382F BF=0.5 CJE=190p CJC=38p TF=0.3U) 
.ENDS

*TRIAC L0107NE 
.SUBCKT L0107NE 1 2 3 
* TERMINALS: MT2 G MT1 
Qnpn1 5 4 3 NoutF 
Qpnp1 4 5 7 PoutF 
Qnpn2 11 6 7 NoutR 
Qpnp2 6 11 3 PoutR 
Dfor 4 5 DZ OFF Drev 6 11 DZ 
Rfor 4 6 12MEG 
Ron 1 7 300m 
Rhold 7 6 150 
RGP 8 3 350 
RG 2 8 150 
RS 8 4 250 
DN 9 2 DIN 
RN 9 3 6.0 
GNN 6 7 9 3 0.2 
GNP 4 5 9 3 0.521 
DP 2 10 DIP 
RP 10 3 4.0 
GP 7 6 10 3 0.15 
.MODEL DIN D (IS=382F)
.MODEL DIP D (IS=382F N=1.19) 
.MODEL DZ D (IS=382F N=1.5 IBV=50U BV=800) 
.MODEL PoutF PNP (IS=382F BF=1 CJE=190p TF=0.3U) 
.MODEL NoutF NPN (IS=382F BF=3 CJE=190p CJC=38p TF=0.3U) 
.MODEL PoutR PNP (IS=382F BF=5 CJE=190p TF=0.3U) 
.MODEL NoutR NPN (IS=382F BF=0.5 CJE=190p CJC=38p TF=0.3U) 
.ENDS
*TRIAC L0107DT
 .SUBCKT L0107DT 1 2 3 
* TERMINALS: MT2 G MT1 
Qnpn1 5 4 3 NoutF 
Qpnp1 4 5 7 PoutF 
Qnpn2 11 6 7 NoutR 
Qpnp2 6 11 3 PoutR 
Dfor 4 5 DZ 
Drev 6 11 DZ 
Rfor 4 6 12MEG 
Ron 1 7 300m 
Rhold 7 6 150 
RGP 8 3 350 
RG 2 8 150 
RS 8 4 250 
DN 9 2 DIN 
RN 9 3 6.0 
GNN 6 7 9 3 0.2 
GNP 4 5 9 3 0.521 
DP 2 10 DIP 
RP 10 3 4.0 
GP 7 6 10 3 0.15 
.MODEL DIN D (IS=382F) 
.MODEL DIP D (IS=382F N=1.19) 
.MODEL DZ D (IS=382F N=1.5 IBV=50U BV=400) 
.MODEL PoutF PNP (IS=382F BF=1 CJE=190p TF=0.3U) 
.MODEL NoutF NPN (IS=382F BF=3 CJE=190p CJC=38p TF=0.3U) 
.MODEL PoutR PNP (IS=382F BF=5 CJE=190p TF=0.3U) 
.MODEL NoutR NPN (IS=382F BF=0.5 CJE=190p CJC=38p TF=0.3U) 
.ENDS 
*TRIAC L0107MT
.SUBCKT L0107MT 1 2 3 
* TERMINALS: MT2 G MT1 
Qnpn1 5 4 3 NoutF 
Qpnp1 4 5 7 PoutF 
Qnpn2 11 6 7 NoutR 
Qpnp2 6 11 3 PoutR 
Dfor 4 5 DZ 
Drev 6 11 DZ 
Rfor 4 6 12MEG 
Ron 1 7 300m 
Rhold 7 6 150 
RGP 8 3 350 
RG 2 8 150 
RS 8 4 250 
DN 9 2 DIN 
RN 9 3 6.0 
GNN 6 7 9 3 0.2 
GNP 4 5 9 3 0.521 
DP 2 10 DIP 
RP 10 3 4.0 
GP 7 6 10 3 0.15 
.MODEL DIN D (IS=382F) 
.MODEL DIP D (IS=382F N=1.19) 
.MODEL DZ D (IS=382F N=1.5 IBV=50U BV=600) 
.MODEL PoutF PNP (IS=382F BF=1 CJE=190p TF=0.3U) 
.MODEL NoutF NPN (IS=382F BF=3 CJE=190p CJC=38p TF=0.3U) 
.MODEL PoutR PNP (IS=382F BF=5 CJE=190p TF=0.3U) 
.MODEL NoutR NPN (IS=382F BF=0.5 CJE=190p CJC=38p TF=0.3U) 
.ENDS
*TRIAC L0107NT
 .SUBCKT L0107NT 1 2 3 
* TERMINALS: MT2 G MT1 
Qnpn1 5 4 3 NoutF 
Qpnp1 4 5 7 PoutF 
Qnpn2 11 6 7 NoutR 
Qpnp2 6 11 3 PoutR 
Dfor 4 5 DZ 
Drev 6 11 DZ 
Rfor 4 6 12MEG 
Ron 1 7 300m 
Rhold 7 6 150 
RGP 8 3 350 
RG 2 8 150 
RS 8 4 250 
DN 9 2 DIN 
RN 9 3 6.0 
GNN 6 7 9 3 0.2 
GNP 4 5 9 3 0.521 
DP 2 10 DIP 
RP 10 3 4.0 
GP 7 6 10 3 0.15 
.MODEL DIN D (IS=382F) 
.MODEL DIP D (IS=382F N=1.19) 
.MODEL DZ D (IS=382F N=1.5 IBV=50U BV=800) 
.MODEL PoutF PNP (IS=382F BF=1 CJE=190p TF=0.3U) 
.MODEL NoutF NPN (IS=382F BF=3 CJE=190p CJC=38p TF=0.3U) 
.MODEL PoutR PNP (IS=382F BF=5 CJE=190p TF=0.3U) 
.MODEL NoutR NPN (IS=382F BF=0.5 CJE=190p CJC=38p TF=0.3U) 
.ENDS
*TRIAC L0109DE
 .SUBCKT L0109DE 1 2 3 
* TERMINALS: MT2 G MT1 
Qnpn1 5 4 3 NoutF 
Qpnp1 4 5 7 PoutF 
Qnpn2 11 6 7 NoutR 
Qpnp2 6 11 3 PoutR 
Dfor 4 5 DZ 
Drev 6 11 DZ 
Rfor 4 6 12MEG 
Ron 1 7 300m 
Rhold 7 6 150 
RGP 8 3 350 
RG 2 8 150 
RS 8 4 250 
DN 9 2 DIN 
RN 9 3 6.0 
GNN 6 7 9 3 0.2 
GNP 4 5 9 3 0.521 
DP 2 10 DIP 
RP 10 3 4.0 
GP 7 6 10 3 0.15 
.MODEL DIN D (IS=382F) 
.MODEL DIP D (IS=382F N=1.19) 
.MODEL DZ D (IS=382F N=1.5 IBV=50U BV=400) 
.MODEL PoutF PNP (IS=382F BF=1 CJE=190p TF=0.3U) 
.MODEL NoutF NPN (IS=382F BF=3 CJE=190p CJC=38p TF=0.3U) 
.MODEL PoutR PNP (IS=382F BF=5 CJE=190p TF=0.3U) 
.MODEL NoutR NPN (IS=382F BF=0.5 CJE=190p CJC=38p TF=0.3U) 
.ENDS 
*TRIAC L0109ME
.SUBCKT L0109ME 1 2 3 
* TERMINALS: MT2 G MT1 
Qnpn1 5 4 3 NoutF 
Qpnp1 4 5 7 PoutF 
Qnpn2 11 6 7 NoutR 
Qpnp2 6 11 3 PoutR 
Dfor 4 5 DZ 
Drev 6 11 DZ 
Rfor 4 6 12MEG 
Ron 1 7 300m 
Rhold 7 6 150 
RGP 8 3 350 
RG 2 8 150 
RS 8 4 250 
DN 9 2 DIN 
RN 9 3 6.0 
GNN 6 7 9 3 0.2 
GNP 4 5 9 3 0.521 
DP 2 10 DIP 
RP 10 3 4.0 
GP 7 6 10 3 0.15 
.MODEL DIN D (IS=382F) 
.MODEL DIP D (IS=382F N=1.19) 
.MODEL DZ D (IS=382F N=1.5 IBV=50U BV=600) 
.MODEL PoutF PNP (IS=382F BF=1 CJE=190p TF=0.3U) 
.MODEL NoutF NPN (IS=382F BF=3 CJE=190p CJC=38p TF=0.3U) 
.MODEL PoutR PNP (IS=382F BF=5 CJE=190p TF=0.3U) 
.MODEL NoutR NPN (IS=382F BF=0.5 CJE=190p CJC=38p TF=0.3U) 
.ENDS 
*TRIAC L0109NE
.SUBCKT L0109NE 1 2 3 
* TERMINALS: MT2 G MT1 
Qnpn1 5 4 3 NoutF 
Qpnp1 4 5 7 PoutF 
Qnpn2 11 6 7 NoutR 
Qpnp2 6 11 3 PoutR 
Dfor 4 5 DZ 
Drev 6 11 DZ 
Rfor 4 6 12MEG 
Ron 1 7 300m 
Rhold 7 6 150 
RGP 8 3 350 
RG 2 8 150 
RS 8 4 250 
DN 9 2 DIN 
RN 9 3 6.0 
GNN 6 7 9 3 0.2 
GNP 4 5 9 3 0.521 
DP 2 10 DIP 
RP 10 3 4.0 
GP 7 6 10 3 0.15 
.MODEL DIN D (IS=382F) 
.MODEL DIP D (IS=382F N=1.19) 
.MODEL DZ D (IS=382F N=1.5 IBV=50U BV=800) 
.MODEL PoutF PNP (IS=382F BF=1 CJE=190p TF=0.3U) 
.MODEL NoutF NPN (IS=382F BF=3 CJE=190p CJC=38p TF=0.3U) 
.MODEL PoutR PNP (IS=382F BF=5 CJE=190p TF=0.3U) 
.MODEL NoutR NPN (IS=382F BF=0.5 CJE=190p CJC=38p TF=0.3U) 
.ENDS
*TRIAC L0109DT
 .SUBCKT L0109DT 1 2 3 
* TERMINALS: MT2 G MT1 
Qnpn1 5 4 3 NoutF 
Qpnp1 4 5 7 PoutF 
Qnpn2 11 6 7 NoutR 
Qpnp2 6 11 3 PoutR 
Dfor 4 5 DZ 
Drev 6 11 DZ 
Rfor 4 6 12MEG 
Ron 1 7 300m 
Rhold 7 6 150 
RGP 8 3 350 
RG 2 8 150 
RS 8 4 250 
DN 9 2 DIN 
RN 9 3 6.0 
GNN 6 7 9 3 0.2 
GNP 4 5 9 3 0.521 
DP 2 10 DIP 
RP 10 3 4.0 
GP 7 6 10 3 0.15 
.MODEL DIN D (IS=382F) 
.MODEL DIP D (IS=382F N=1.19) 
.MODEL DZ D (IS=382F N=1.5 IBV=50U BV=400) 
.MODEL PoutF PNP (IS=382F BF=1 CJE=190p TF=0.3U) 
.MODEL NoutF NPN (IS=382F BF=3 CJE=190p CJC=38p TF=0.3U) 
.MODEL PoutR PNP (IS=382F BF=5 CJE=190p TF=0.3U) 
.MODEL NoutR NPN (IS=382F BF=0.5 CJE=190p CJC=38p TF=0.3U) 
.ENDS 
*TRIAC L0109MT
.SUBCKT L0109MT 1 2 3 
* TERMINALS: MT2 G MT1 
Qnpn1 5 4 3 NoutF 
Qpnp1 4 5 7 PoutF 
Qnpn2 11 6 7 NoutR 
Qpnp2 6 11 3 PoutR 
Dfor 4 5 DZ 
Drev 6 11 DZ 
Rfor 4 6 12MEG 
Ron 1 7 300m 
Rhold 7 6 150 
RGP 8 3 350 
RG 2 8 150 
RS 8 4 250 
DN 9 2 DIN 
RN 9 3 6.0 
GNN 6 7 9 3 0.2 
GNP 4 5 9 3 0.521 
DP 2 10 DIP 
RP 10 3 4.0 
GP 7 6 10 3 0.15 
.MODEL DIN D (IS=382F) 
.MODEL DIP D (IS=382F N=1.19) 
.MODEL DZ D (IS=382F N=1.5 IBV=50U BV=600) 
.MODEL PoutF PNP (IS=382F BF=1 CJE=190p TF=0.3U) 
.MODEL NoutF NPN (IS=382F BF=3 CJE=190p CJC=38p TF=0.3U) 
.MODEL PoutR PNP (IS=382F BF=5 CJE=190p TF=0.3U) 
.MODEL NoutR NPN (IS=382F BF=0.5 CJE=190p CJC=38p TF=0.3U) 
.ENDS 
*TRIAC L0109NT
.SUBCKT L0109NT 1 2 3 
* TERMINALS: MT2 G MT1 
Qnpn1 5 4 3 NoutF 
Qpnp1 4 5 7 PoutF 
Qnpn2 11 6 7 NoutR 
Qpnp2 6 11 3 PoutR 
Dfor 4 5 DZ 
Drev 6 11 DZ 
Rfor 4 6 12MEG 
Ron 1 7 300m 
Rhold 7 6 150 
RGP 8 3 350 
RG 2 8 150 
RS 8 4 250 
DN 9 2 DIN 
RN 9 3 6.0 
GNN 6 7 9 3 0.2 
GNP 4 5 9 3 0.521 
DP 2 10 DIP 
RP 10 3 4.0 
GP 7 6 10 3 0.15 
.MODEL DIN D (IS=382F) 
.MODEL DIP D (IS=382F N=1.19) 
.MODEL DZ D (IS=382F N=1.5 IBV=50U BV=800) 
.MODEL PoutF PNP (IS=382F BF=1 CJE=190p TF=0.3U) 
.MODEL NoutF NPN (IS=382F BF=3 CJE=190p CJC=38p TF=0.3U) 
.MODEL PoutR PNP (IS=382F BF=5 CJE=190p TF=0.3U) 
.MODEL NoutR NPN (IS=382F BF=0.5 CJE=190p CJC=38p TF=0.3U) 
.ENDS
