* Library of PCI82430 I/O Buffer Models

* Copyright 1994-1995 by MicroSim Corporation
* Neither this library nor any part may be copied without the express
* written consent of MicroSim Corporation


* $Revision:   1.1  $
* $Author:   ANW  $
* $Date:   18 Feb 1995 15:35:50  $
*

* ---------------------------------------------------------------------
*
* Application note:  Initializing the output node may help convergence.
*
* ---------------------------------------------------------------------
*
*$
*                                         
*  Component:           CY7C175,7C1031
*  Signals:             ALL
*  Buffer Type          ALL  
*  Revision:            1.0
*
*  Model type:          best case:  max ramp time, min package parasitics, 
*                       min die capacitance, max output current
*
*
*
*                 	Input	Output	VCC	GND	Enable
.subckt CY7C_B          100  	200 	300 	400 	500
+ PARAMS:
+ R_pkg = 55m           ; package bond wire and lead resistance at output
+ L_pkg = 5n            ; package bond wire and lead inductance at output
+ C_pkg = 1p            ; package bond wire and lead capacitance at output
+ C_comp = 4p           ; die capacitance at output
+ dVdt_r = 22           ; output rise time in V/ns
+ dVdt_f = 47           ; output fall time in V/ns
*
*
******* Parameters *******
.PARAM Rtr = { (1/dVdt_r) * 1e5}
.PARAM Rtf = { (1/dVdt_f) * 1e5 }
.PARAM Vinh = 1.56v             ; Input high threshold voltage
.PARAM Vinl = 1.47v		; Input low threshold voltage
*
******* Input and Enable Threshld **********************
Ein_thr_dn 800 0 VALUE = {TABLE(V(100,400),
+ Vinl, 0,
+ Vinl+1e-6, 1)}
*
Ein_thr_up 810 0 VALUE = {TABLE (V(100,400),
+ Vinh-1e-6, 1,
+ Vinh, 0)}
*
Ein_thr 530 0 VALUE = {TABLE (V(500,400),
+ Vinl, 0,
+ Vinh, 1)}
*
Edn 820 0 VALUE = {LIMIT(V(800,0), 0, V(530,0))}
Eup 830 0 VALUE = {LIMIT(V(810,0), 0, V(530,0))}
Rdum1 530 0 10meg
Rdum2 800 0 10meg
Rdum3 810 0 10meg
Rdum4 820 0 10meg
Rdum5 830 0 10meg
*
******** Rise & Fall Time *******
Gramp_dn 840 400a VALUE={v(840,400a) / (abs(v(840,400) * Rtf
+ + V(820,400) * 1e9) + 1e-4) }
rgramp_dn 400a 400 0.1
Cramp_dn 840 400 0.01p
*
GRchrg_dn 840 220 VALUE={v(840,220)/(abs(v(830,0) * 1e+7)+1e-4)}
cchrg_dn 840 220 1f
rchrg_dn 840 220 10meg
*
Gramp_up 300a 850 VALUE = {v(300a,850) / (abs(v(300,850) * Rtr +
+ V(830,400) * 1e9) + 1e-4)}
Vramp_up 300a 300 10u
Cramp_up 850 300 0.01pf
*
ERchrg_up 850 220b VALUE = {I(Vchrg_up) * (abs(v(820,0) * 1e9) + 1e-4)}
Vchrg_up 220b 220 0
cchrg_up 850 220 5f
*
******* Output Pulldown *******
Esw_dn 240 0 VALUE = { TABLE(v(840),
+ 4.5-1e-5, 1,
+ 4.5, 0) }
*
Rout_dn 220 400 1
Gadj_dn 220 400 VALUE = {V(280,220)}
Elim_dn 280 400 VALUE = {LIMIT(v(260,0), -v(240,0)*1e3, v(240,0)*1e3)}
Epwl_dn 260 0 TABLE {v(220,840)}
+ -5.0v, 0m
+ -4.0v, 0m
+ -3.0v, 0m
+ -2.0v, 0m
+ -1.0v, 0m
+ 0.0v, 30m
+ 0.5v, 120m
+ 1.0v, 200m
+ 1.5v, 230m
+ 2.0v, 250m
+ 2.5v, 255m
+ 3.0v, 258m
+ 3.5v, 262m
+ 4.0v, 264m
+ 4.5v, 265m
+ 5.0v, 265m
+ 10.0v, 265m
Rdum6 240 0 10meg
Rdum7 260 0 10meg
Rdum8 280 400 10meg
*
******* Output pullup *******
Esw_up 230 0 VALUE = {TABLE(v(850),
+ 0.5, 0,
+ 0.5+1e-5, 1 )}
*
Rout_up 300 220 1
Gadj_up 300 220 VALUE={v(220,270)}
Elim_up 300 270 VALUE={LIMIT(v(0,250), -v(230)*1e3, v(230)*1e3)}
Epwl_up 250 0 TABLE={v(850,220)}
+ -5.0v, -16m
+ -4.0v, -16m
+ -3.0v, -16m
+ -2.0v, -16m
+ -1.0v, -16m
+ 0.0v, -16m
+ 0.5v, -27m
+ 1.0v, -39m
+ 1.5v, -70m
+ 2.0v, -100m
+ 2.5v, -141m
+ 3.0v, -180m
+ 3.5v, -212m
+ 4.0v, -253m
+ 4.5v, -290m
+ 5.0v, -320m
+ 10.0v, -320m
Rdum9 230 0 10meg
Rdum10 250 0 10meg
Rdum11 270 300 10meg
*
******* Output Package *******
Cout_pkg 200 400 {C_pkg}
Rout_pkg 200 210 {R_pkg}
Lout_pkg 210 220 {L_pkg}
Rout_snb 210 220 100
Cout_die 220 400 {C_comp}
******* End of Subcircuit *******
.ENDS
*$

*                                         
*  Component:           CY7C175,7C1031
*  Signals:             ALL
*  Buffer Type          ALL  
*  Revision:            1.0
*
*  Model type:          worst case:  min ramp time, max package parasitics, 
*                       max die capacitance, min output current
*
*
*
*                 	Input	Output	VCC	GND	Enable
.subckt CY7C_W          100  	200 	300 	400 	500
+ PARAMS:
+ R_pkg = 55m           ; package bond wire and lead resistance at output
+ L_pkg = 6n            ; package bond wire and lead inductance at output
+ C_pkg = 1.25p         ; package bond wire and lead capacitance at output
+ C_comp = 4p           ; die capacitance at output
+ dVdt_r = 14           ; output rise time in V/ns
+ dVdt_f = 32           ; output fall time in V/ns
*
*
******* Parameters *******
.PARAM Rtr = { (1/dVdt_r) * 1e5}
.PARAM Rtf = { (1/dVdt_f) * 1e5 }
.PARAM Vinh = 1.56v             ; Input high threshold voltage
.PARAM Vinl = 1.47v		; Input low threshold voltage
*
******* Input and Enable Threshld **********************
Ein_thr_dn 800 0 VALUE = {TABLE(V(100,400),
+ Vinl, 0,
+ Vinl+1e-6, 1)}
*
Ein_thr_up 810 0 VALUE = {TABLE (V(100,400),
+ Vinh-1e-6, 1,
+ Vinh, 0)}
*
Ein_thr 530 0 VALUE = {TABLE (V(500,400),
+ Vinl, 0,
+ Vinh, 1)}
*
Edn 820 0 VALUE = {LIMIT(V(800,0), 0, V(530,0))}
Eup 830 0 VALUE = {LIMIT(V(810,0), 0, V(530,0))}
Rdum1 530 0 10meg
Rdum2 800 0 10meg
Rdum3 810 0 10meg
Rdum4 820 0 10meg
Rdum5 830 0 10meg
*
******** Rise & Fall Time *******
Gramp_dn 840 400a VALUE={v(840,400a) / (abs(v(840,400) * Rtf
+ + V(820,400) * 1e9) + 1e-4) }
rgramp_dn 400a 400 0.1
Cramp_dn 840 400 0.01p
*
GRchrg_dn 840 220 VALUE={v(840,220)/(abs(v(830,0) * 1e+7)+1e-4)}
cchrg_dn 840 220 1f
rchrg_dn 840 220 10meg
*
Gramp_up 300a 850 VALUE = {v(300a,850) / (abs(v(300,850) * Rtr +
+ V(830,400) * 1e9) + 1e-4)}
Vramp_up 300a 300 10u
Cramp_up 850 300 0.01pf
*
ERchrg_up 850 220b VALUE = {I(Vchrg_up) * (abs(v(820,0) * 1e9) + 1e-4)}
Vchrg_up 220b 220 0
cchrg_up 850 220 5f
*
******* Output Pulldown *******
Esw_dn 240 0 VALUE = { TABLE(v(840),
+ 4.5-1e-5, 1,
+ 4.5, 0) }
*
Rout_dn 220 400 1
Gadj_dn 220 400 VALUE = {V(280,220)}
Elim_dn 280 400 VALUE = {LIMIT(v(260,0), -v(240,0)*1e3, v(240,0)*1e3)}
Epwl_dn 260 0 TABLE {v(220,840)}
+ -5.0v, 0m
+ -4.0v, 0m
+ -3.0v, 0m
+ -2.0v, 0m
+ -1.0v, 0m
+ 0.0v, 9m
+ 0.5v, 35m
+ 1.0v, 70m
+ 1.5v, 90m
+ 2.0v, 102m
+ 2.5v, 106m
+ 3.0v, 108m
+ 3.5v, 110m
+ 4.0v, 112m
+ 4.5v, 114m
+ 5.0v, 116m
+ 10.0v, 116m
Rdum6 240 0 10meg
Rdum7 260 0 10meg
Rdum8 280 400 10meg
*
******* Output pullup *******
Esw_up 230 0 VALUE = {TABLE(v(850),
+ 0.5, 0,
+ 0.5+1e-5, 1 )}
*
Rout_up 300 220 1
Gadj_up 300 220 VALUE={v(220,270)}
Elim_up 300 270 VALUE={LIMIT(v(0,250), -v(230)*1e3, v(230)*1e3)}
Epwl_up 250 0 TABLE={v(850,220)}
+ -5.0v, -5m
+ -4.0v, -5m
+ -3.0v, -5m
+ -2.0v, -5m
+ -1.0v, -5m
+ 0.0v, -5m
+ 0.5v, -5m
+ 1.0v, -5m
+ 1.5v, -10m
+ 2.0v, -14m
+ 2.5v, -25m
+ 3.0v, -40m
+ 3.5v, -62m
+ 4.0v, -85m
+ 4.5v, -112m
+ 5.0v, -130m
+ 10.0v, -130m
Rdum9 230 0 10meg
Rdum10 250 0 10meg
Rdum11 270 300 10meg
*
******* Output Package *******
Cout_pkg 200 400 {C_pkg}
Rout_pkg 200 210 {R_pkg}
Lout_pkg 210 220 {L_pkg}
Rout_snb 210 220 100
Cout_die 220 400 {C_comp}
******* End of Subcircuit *******
.ENDS
*$

*                                         
*  Component:           S82374EB ESC
*  Signals:             BCLKOUT
*  Buffer Type          O  
*  ESC1 Revision:       1.0
*
*  Model type:          best case:  min ramp time, min package parasitics, 
*                       min die capacitance, max output current
*
*
*
*                 	Input	Output	VCC	GND	Enable
.subckt ESC1_B 	        100  	200 	300 	400 	500
+ PARAMS:
+ R_pkg = 226m          ; package bond wire and lead resistance at output
+ L_pkg = 8.5n          ; package bond wire and lead inductance at output
+ C_pkg = 1.9p          ; package bond wire and lead capacitance at output
+ C_comp = 2p           ; die capacitance at output
+ dVdt_r = {5.25/0.95}  ; output rise time in V/ns
+ dVdt_f = {5.25/0.89}  ; output fall time in V/ns
*
*
******* Parameters *******
.PARAM Rtr = { (1/dVdt_r) * 1e5}
.PARAM Rtf = { (1/dVdt_f) * 1e5 }
.PARAM Vinh = 1.56v             ; Input high threshold voltage
.PARAM Vinl = 1.47v		; Input low threshold voltage
*
******* Input and Enable Threshld **********************
Ein_thr_dn 800 0 VALUE = {TABLE(V(100,400),
+ Vinl, 0,
+ Vinl+1e-6, 1)}
*
Ein_thr_up 810 0 VALUE = {TABLE (V(100,400),
+ Vinh-1e-6, 1,
+ Vinh, 0)}
*
Ein_thr 530 0 VALUE = {TABLE (V(500,400),
+ Vinl, 0,
+ Vinh, 1)}
*
Edn 820 0 VALUE = {LIMIT(V(800,0), 0, V(530,0))}
Eup 830 0 VALUE = {LIMIT(V(810,0), 0, V(530,0))}
Rdum1 530 0 10meg
Rdum2 800 0 10meg
Rdum3 810 0 10meg
Rdum4 820 0 10meg
Rdum5 830 0 10meg
*
******** Rise & Fall Time *******
Gramp_dn 840 400a VALUE={v(840,400a) / (abs(v(840,400) * Rtf
+ + V(820,400) * 1e9) + 1e-4) }
rgramp_dn 400a 400 0.1
Cramp_dn 840 400 0.01p
*
GRchrg_dn 840 220 VALUE={v(840,220)/(abs(v(830,0) * 1e+7)+1e-4)}
cchrg_dn 840 220 1f
rchrg_dn 840 220 10meg
*
Gramp_up 300a 850 VALUE = {v(300a,850) / (abs(v(300,850) * Rtr +
+ V(830,400) * 1e9) + 1e-4)}
Vramp_up 300a 300 10u
Cramp_up 850 300 0.01pf
*
ERchrg_up 850 220b VALUE = {I(Vchrg_up) * (abs(v(820,0) * 1e9) + 1e-4)}
Vchrg_up 220b 220 0
cchrg_up 850 220 5f
*
******* Output Pulldown *******
Esw_dn 240 0 VALUE = { TABLE(v(840),
+ 4.5-1e-5, 1,
+ 4.5, 0) }
*
Rout_dn 220 400 1
Gadj_dn 220 400 VALUE = {V(280,220)}
Elim_dn 280 400 VALUE = {LIMIT(v(260,0), -v(240,0)*1e3, v(240,0)*1e3)}
Epwl_dn 260 0 TABLE {v(220,840)}
+ -5.0v, -216m
+ -4.0v, -212m
+ -3.0v, -207m
+ -2.0v, -189m
+ -1.0v, -126m
+ 0.0v, 0m
+ 0.5v, 71m
+ 1.0v, 126m
+ 1.5v, 163m
+ 2.0v, 189m
+ 2.5v, 202m
+ 3.0v, 207m
+ 3.5v, 210m
+ 4.0v, 212m
+ 4.5v, 214m
+ 5.0v, 216m
+ 10.0v, 230m
Rdum6 240 0 10meg
Rdum7 260 0 10meg
Rdum8 280 400 10meg
*
******* Output clamp to GND *******
Ggnd_out 220 400 TABLE {v(220,400)}
+ -5.0v, -1725m
+ -1.0v, -110m
+ -0.9v, -70m
+ -0.8v, -35m
+ -0.7v, -5m
+ -0.6v, 0m
+ -0.5v, 0m
+ -0.4v, 0m
+ 0.0v, 0m
*
******* Output pullup *******
Esw_up 230 0 VALUE = {TABLE(v(850),
+ 0.5, 0,
+ 0.5+1e-5, 1 )}
*
Rout_up 300 220 1
Gadj_up 300 220 VALUE={v(220,270)}
Elim_up 300 270 VALUE={LIMIT(v(0,250), -v(230)*1e3, v(230)*1e3)}
Epwl_up 250 0 TABLE={v(850,220)}
+ -5.0v, 184m
+ -4.0v, 173m
+ -3.0v, 157m
+ -2.0v, 125m
+ -1.0v, 72m
+ 0.0v, 0m
+ 0.5v, -38m
+ 1.0v, -72m
+ 1.5v, -102m
+ 2.0v, -125m
+ 2.5v, -142m
+ 3.0v, -157m
+ 3.5v, -166m
+ 4.0v, -173m
+ 4.5v, -179m
+ 5.0v, -184m
+ 10.0v, -215m
Rdum9 230 0 10meg
Rdum10 250 0 10meg
Rdum11 270 300 10meg
*
******* Output clamp to VCC ********
GVcc_out 220 300 TABLE {V(300,220)}
+ -5.0v, 970m
+ -1.0v, 74m
+ -0.9v, 52m
+ -0.8v, 30m
+ -0.7v, 4m
+ -0.6v, 0m
+ -0.5v, 0m
+ -0.4v, 0m
+ 0.0v, 0m
*
******* Output Package *******
Cout_pkg 200 400 {C_pkg}
Rout_pkg 200 210 {R_pkg}
Lout_pkg 210 220 {L_pkg}
Rout_snb 210 220 100
Cout_die 220 400 {C_comp}
******* End of Subcircuit *******
.ENDS
*$

*                                         
*  Component:           S82374EB ESC
*  Signals:             BCLKOUT
*  Buffer Type          O  
*  ESC1 Revision:       1.0
*
*  Model type:          worst case:  max ramp time, max package parasitics, 
*                       max die capacitance, min output current
*
*
*
*                 	Input	Output	VCC	GND	Enable
.subckt ESC1_W 	        100  	200 	300 	400 	500
+ PARAMS:
+ R_pkg = 405m          ; package bond wire and lead resistance at output
+ L_pkg = 15.1n         ; package bond wire and lead inductance at output
+ C_pkg = 2.8p          ; package bond wire and lead capacitance at output
+ C_comp = 7.2p         ; die capacitance at output
+ dVdt_r = {4.75/2.20}  ; output rise time in V/ns
+ dVdt_f = {4.75/2.70}  ; output fall time in V/ns
*
*
******* Parameters *******
.PARAM Rtr = { (1/dVdt_r) * 1e5}
.PARAM Rtf = { (1/dVdt_f) * 1e5 }
.PARAM Vinh = 1.56v             ; Input high threshold voltage
.PARAM Vinl = 1.47v		; Input low threshold voltage
*
******* Input and Enable Threshld **********************
Ein_thr_dn 800 0 VALUE = {TABLE(V(100,400),
+ Vinl, 0,
+ Vinl+1e-6, 1)}
*
Ein_thr_up 810 0 VALUE = {TABLE (V(100,400),
+ Vinh-1e-6, 1,
+ Vinh, 0)}
*
Ein_thr 530 0 VALUE = {TABLE (V(500,400),
+ Vinl, 0,
+ Vinh, 1)}
*
Edn 820 0 VALUE = {LIMIT(V(800,0), 0, V(530,0))}
Eup 830 0 VALUE = {LIMIT(V(810,0), 0, V(530,0))}
Rdum1 530 0 10meg
Rdum2 800 0 10meg
Rdum3 810 0 10meg
Rdum4 820 0 10meg
Rdum5 830 0 10meg
*
******** Rise & Fall Time *******
Gramp_dn 840 400a VALUE={v(840,400a) / (abs(v(840,400) * Rtf
+ + V(820,400) * 1e9) + 1e-4) }
rgramp_dn 400a 400 0.1
Cramp_dn 840 400 0.01p
*
GRchrg_dn 840 220 VALUE={v(840,220)/(abs(v(830,0) * 1e+7)+1e-4)}
cchrg_dn 840 220 1f
rchrg_dn 840 220 10meg
*
Gramp_up 300a 850 VALUE = {v(300a,850) / (abs(v(300,850) * Rtr +
+ V(830,400) * 1e9) + 1e-4)}
Vramp_up 300a 300 10u
Cramp_up 850 300 0.01pf
*
ERchrg_up 850 220b VALUE = {I(Vchrg_up) * (abs(v(820,0) * 1e9) + 1e-4)}
Vchrg_up 220b 220 0
cchrg_up 850 220 5f
*
******* Output Pulldown *******
Esw_dn 240 0 VALUE = { TABLE(v(840),
+ 4.5-1e-5, 1,
+ 4.5, 0) }
*
Rout_dn 220 400 1
Gadj_dn 220 400 VALUE = {V(280,220)}
Elim_dn 280 400 VALUE = {LIMIT(v(260,0), -v(240,0)*1e3, v(240,0)*1e3)}
Epwl_dn 260 0 TABLE {v(220,840)}
+ -5.0v, -110m
+ -4.0v, -107m
+ -3.0v, -103m
+ -2.0v, -91m
+ -1.0v, -57m
+ 0.0v, 0m
+ 0.5v, 31m
+ 1.0v, 57m
+ 1.5v, 76m
+ 2.0v, 91m
+ 2.5v, 100m
+ 3.0v, 103m
+ 3.5v, 105m
+ 4.0v, 107m
+ 4.5v, 109m
+ 5.0v, 111m
+ 10.0v, 120m
Rdum6 240 0 10meg
Rdum7 260 0 10meg
Rdum8 280 400 10meg
*
******* Output clamp to GND *******
Ggnd_out 220 400 TABLE {v(220,400)}
+ -5.0v, -1725m
+ -1.0v, -110m
+ -0.9v, -70m
+ -0.8v, -35m
+ -0.7v, -5m
+ -0.6v, 0m
+ -0.5v, 0m
+ -0.4v, 0m
+ 0.0v, 0m
*
******* Output pullup *******
Esw_up 230 0 VALUE = {TABLE(v(850),
+ 0.5, 0,
+ 0.5+1e-5, 1 )}
*
Rout_up 300 220 1
Gadj_up 300 220 VALUE={v(220,270)}
Elim_up 300 270 VALUE={LIMIT(v(0,250), -v(230)*1e3, v(230)*1e3)}
Epwl_up 250 0 TABLE={v(850,220)}
+ -5.0v, 76m
+ -4.0v, 73m
+ -3.0v, 68m
+ -2.0v, 56m
+ -1.0v, 32m
+ 0.0v, 0m
+ 0.5v, -18m
+ 1.0v, -32m
+ 1.5v, -45m
+ 2.0v, -56m
+ 2.5v, -63m
+ 3.0v, -68m
+ 3.5v, -71m
+ 4.0v, -73m
+ 4.5v, -74m
+ 5.0v, -76m
+ 10.0v, -85m
Rdum9 230 0 10meg
Rdum10 250 0 10meg
Rdum11 270 300 10meg
*
******* Output clamp to VCC ********
GVcc_out 220 300 TABLE {V(300,220)}
+ -5.0v, 970m
+ -1.0v, 74m
+ -0.9v, 52m
+ -0.8v, 30m
+ -0.7v, 4m
+ -0.6v, 0m
+ -0.5v, 0m
+ -0.4v, 0m
+ 0.0v, 0m
*
******* Output Package *******
Cout_pkg 200 400 {C_pkg}
Rout_pkg 200 210 {R_pkg}
Lout_pkg 210 220 {L_pkg}
Rout_snb 210 220 100
Cout_die 220 400 {C_comp}
******* End of Subcircuit *******
.ENDS
*$

*                                         
*  Component:           S82374EB ESC
*  Signals:             BALE,BE#[3:0],CHRDY,CMD#,EOP,EX16#,EX32#,EXRDY,IORC#,
*                       IOWC#,LA[31:2],M16#,MRDC#,MSBURST#,MWTC#,M/IO,NOWS#,
*                       REFRESH#,RSTDDRV,SA0,SA1,SBHE#,SD[7:0],SMRDC#,SMWTCH#,
*                       SPKR,START#,W/R# (Note:  EXRDY,EX16#,CHRDY,EX32#,
*                       M16#, and NOWS# are open drain signals, and can only
*                       be driven low.)
*
*  Buffer Type          O  
*  ESC2 Revision:       1.0
*
*  Model type:          best case:  min ramp time, min package parasitics, 
*                       min die capacitance, max output current
*
*
*
*                 	Input	Output	VCC	GND	Enable
.subckt ESC2_B 	        100  	200 	300 	400 	500
+ PARAMS:
+ R_pkg = 226m          ; package bond wire and lead resistance at output
+ L_pkg = 8.5n          ; package bond wire and lead inductance at output
+ C_pkg = 1.9p          ; package bond wire and lead capacitance at output
+ C_comp = 2p           ; die capacitance at output
+ dVdt_r = {5.25/0.45}  ; output rise time in V/ns
+ dVdt_f = {5.25/0.44}  ; output fall time in V/ns
*
*
******* Parameters *******
.PARAM Rtr = { (1/dVdt_r) * 1e5}
.PARAM Rtf = { (1/dVdt_f) * 1e5 }
.PARAM Vinh = 1.56v             ; Input high threshold voltage
.PARAM Vinl = 1.47v		; Input low threshold voltage
*
******* Input and Enable Threshld **********************
Ein_thr_dn 800 0 VALUE = {TABLE(V(100,400),
+ Vinl, 0,
+ Vinl+1e-6, 1)}
*
Ein_thr_up 810 0 VALUE = {TABLE (V(100,400),
+ Vinh-1e-6, 1,
+ Vinh, 0)}
*
Ein_thr 530 0 VALUE = {TABLE (V(500,400),
+ Vinl, 0,
+ Vinh, 1)}
*
Edn 820 0 VALUE = {LIMIT(V(800,0), 0, V(530,0))}
Eup 830 0 VALUE = {LIMIT(V(810,0), 0, V(530,0))}
Rdum1 530 0 10meg
Rdum2 800 0 10meg
Rdum3 810 0 10meg
Rdum4 820 0 10meg
Rdum5 830 0 10meg
*
******** Rise & Fall Time *******
Gramp_dn 840 400a VALUE={v(840,400a) / (abs(v(840,400) * Rtf
+ + V(820,400) * 1e9) + 1e-4) }
rgramp_dn 400a 400 0.1
Cramp_dn 840 400 0.01p
*
GRchrg_dn 840 220 VALUE={v(840,220)/(abs(v(830,0) * 1e+7)+1e-4)}
cchrg_dn 840 220 1f
rchrg_dn 840 220 10meg
*
Gramp_up 300a 850 VALUE = {v(300a,850) / (abs(v(300,850) * Rtr +
+ V(830,400) * 1e9) + 1e-4)}
Vramp_up 300a 300 10u
Cramp_up 850 300 0.01pf
*
ERchrg_up 850 220b VALUE = {I(Vchrg_up) * (abs(v(820,0) * 1e9) + 1e-4)}
Vchrg_up 220b 220 0
cchrg_up 850 220 5f
*
******* Output Pulldown *******
Esw_dn 240 0 VALUE = { TABLE(v(840),
+ 4.5-1e-5, 1,
+ 4.5, 0) }
*
Rout_dn 220 400 1
Gadj_dn 220 400 VALUE = {V(280,220)}
Elim_dn 280 400 VALUE = {LIMIT(v(260,0), -v(240,0)*1e3, v(240,0)*1e3)}
Epwl_dn 260 0 TABLE {v(220,840)}
+ -5.0v, -216m
+ -4.0v, -212m
+ -3.0v, -207m
+ -2.0v, -189m
+ -1.0v, -126m
+ 0.0v, 0m
+ 0.5v, 71m
+ 1.0v, 126m
+ 1.5v, 163m
+ 2.0v, 189m
+ 2.5v, 202m
+ 3.0v, 207m
+ 3.5v, 210m
+ 4.0v, 212m
+ 4.5v, 214m
+ 5.0v, 216m
+ 10.0v, 230m
Rdum6 240 0 10meg
Rdum7 260 0 10meg
Rdum8 280 400 10meg
*
******* Output clamp to GND *******
Ggnd_out 220 400 TABLE {v(220,400)}
+ -5.0v, -1725m
+ -1.0v, -110m
+ -0.9v, -70m
+ -0.8v, -35m
+ -0.7v, -5m
+ -0.6v, 0m
+ -0.5v, 0m
+ -0.4v, 0m
+ 0.0v, 0m
*
******* Output pullup *******
Esw_up 230 0 VALUE = {TABLE(v(850),
+ 0.5, 0,
+ 0.5+1e-5, 1 )}
*
Rout_up 300 220 1
Gadj_up 300 220 VALUE={v(220,270)}
Elim_up 300 270 VALUE={LIMIT(v(0,250), -v(230)*1e3, v(230)*1e3)}
Epwl_up 250 0 TABLE={v(850,220)}
+ -5.0v, 135m
+ -4.0v, 127m
+ -3.0v, 113m
+ -2.0v, 91m
+ -1.0v, 53m
+ 0.0v, 0m
+ 0.5v, -28m
+ 1.0v, -53m
+ 1.5v, -75m
+ 2.0v, -91m
+ 2.5v, -105m
+ 3.0v, -113m
+ 3.5v, -121m
+ 4.0v, -127m
+ 4.5v, -131m
+ 5.0v, -135m
+ 10.0v, -155m
Rdum9 230 0 10meg
Rdum10 250 0 10meg
Rdum11 270 300 10meg
*
******* Output clamp to VCC ********
GVcc_out 220 300 TABLE {V(300,220)}
+ -5.0v, 970m
+ -1.0v, 74m
+ -0.9v, 52m
+ -0.8v, 30m
+ -0.7v, 4m
+ -0.6v, 0m
+ -0.5v, 0m
+ -0.4v, 0m
+ 0.0v, 0m
*
******* Output Package *******
Cout_pkg 200 400 {C_pkg}
Rout_pkg 200 210 {R_pkg}
Lout_pkg 210 220 {L_pkg}
Rout_snb 210 220 100
Cout_die 220 400 {C_comp}
******* End of Subcircuit *******
.ENDS
*$

*                                         
*  Component:           S82374EB ESC
*  Signals:             BALE,BE#[3:0],CHRDY,CMD#,EOP,EX16#,EX32#,EXRDY,IORC#,
*                       IOWC#,LA[31:2],M16#,MRDC#,MSBURST#,MWTC#,M/IO,NOWS#,
*                       REFRESH#,RSTDDRV,SA0,SA1,SBHE#,SD[7:0],SMRDC#,SMWTCH#,
*                       SPKR,START#,W/R# (Note:  EXRDY,EX16#,CHRDY,EX32#,
*                       M16#, and NOWS# are open drain signals, and can only
*                       be driven low.)
*
*  Buffer Type          O  
*  ESC2 Revision:       1.0
*
*  Model type:          worst case:  max ramp time, max package parasitics, 
*                       max die capacitance, min output current
*
*
*
*                 	Input	Output	VCC	GND	Enable
.subckt ESC2_W 	        100  	200 	300 	400 	500
+ PARAMS:
+ R_pkg = 405m          ; package bond wire and lead resistance at output
+ L_pkg = 15.1n         ; package bond wire and lead inductance at output
+ C_pkg = 2.8p          ; package bond wire and lead capacitance at output
+ C_comp = 7.2p         ; die capacitance at output
+ dVdt_r = {4.75/1.45}  ; output rise time in V/ns
+ dVdt_f = {4.75/1.61}  ; output fall time in V/ns
*
*
******* Parameters *******
.PARAM Rtr = { (1/dVdt_r) * 1e5}
.PARAM Rtf = { (1/dVdt_f) * 1e5 }
.PARAM Vinh = 1.56v             ; Input high threshold voltage
.PARAM Vinl = 1.47v		; Input low threshold voltage
*
******* Input and Enable Threshld **********************
Ein_thr_dn 800 0 VALUE = {TABLE(V(100,400),
+ Vinl, 0,
+ Vinl+1e-6, 1)}
*
Ein_thr_up 810 0 VALUE = {TABLE (V(100,400),
+ Vinh-1e-6, 1,
+ Vinh, 0)}
*
Ein_thr 530 0 VALUE = {TABLE (V(500,400),
+ Vinl, 0,
+ Vinh, 1)}
*
Edn 820 0 VALUE = {LIMIT(V(800,0), 0, V(530,0))}
Eup 830 0 VALUE = {LIMIT(V(810,0), 0, V(530,0))}
Rdum1 530 0 10meg
Rdum2 800 0 10meg
Rdum3 810 0 10meg
Rdum4 820 0 10meg
Rdum5 830 0 10meg
*
******** Rise & Fall Time *******
Gramp_dn 840 400a VALUE={v(840,400a) / (abs(v(840,400) * Rtf
+ + V(820,400) * 1e9) + 1e-4) }
rgramp_dn 400a 400 0.1
Cramp_dn 840 400 0.01p
*
GRchrg_dn 840 220 VALUE={v(840,220)/(abs(v(830,0) * 1e+7)+1e-4)}
cchrg_dn 840 220 1f
rchrg_dn 840 220 10meg
*
Gramp_up 300a 850 VALUE = {v(300a,850) / (abs(v(300,850) * Rtr +
+ V(830,400) * 1e9) + 1e-4)}
Vramp_up 300a 300 10u
Cramp_up 850 300 0.01pf
*
ERchrg_up 850 220b VALUE = {I(Vchrg_up) * (abs(v(820,0) * 1e9) + 1e-4)}
Vchrg_up 220b 220 0
cchrg_up 850 220 5f
*
******* Output Pulldown *******
Esw_dn 240 0 VALUE = { TABLE(v(840),
+ 4.5-1e-5, 1,
+ 4.5, 0) }
*
Rout_dn 220 400 1
Gadj_dn 220 400 VALUE = {V(280,220)}
Elim_dn 280 400 VALUE = {LIMIT(v(260,0), -v(240,0)*1e3, v(240,0)*1e3)}
Epwl_dn 260 0 TABLE {v(220,840)}
+ -5.0v, -110m
+ -4.0v, -107m
+ -3.0v, -103m
+ -2.0v, -91m
+ -1.0v, -57m
+ 0.0v, 0m
+ 0.5v, 31m
+ 1.0v, 57m
+ 1.5v, 76m
+ 2.0v, 91m
+ 2.5v, 100m
+ 3.0v, 103m
+ 3.5v, 105m
+ 4.0v, 107m
+ 4.5v, 109m
+ 5.0v, 111m
+ 10.0v, 120m
Rdum6 240 0 10meg
Rdum7 260 0 10meg
Rdum8 280 400 10meg
*
******* Output clamp to GND *******
Ggnd_out 220 400 TABLE {v(220,400)}
+ -5.0v, -1725m
+ -1.0v, -110m
+ -0.9v, -70m
+ -0.8v, -35m
+ -0.7v, -5m
+ -0.6v, 0m
+ -0.5v, 0m
+ -0.4v, 0m
+ 0.0v, 0m
*
******* Output pullup *******
Esw_up 230 0 VALUE = {TABLE(v(850),
+ 0.5, 0,
+ 0.5+1e-5, 1 )}
*
Rout_up 300 220 1
Gadj_up 300 220 VALUE={v(220,270)}
Elim_up 300 270 VALUE={LIMIT(v(0,250), -v(230)*1e3, v(230)*1e3)}
Epwl_up 250 0 TABLE={v(850,220)}
+ -5.0v, 57m
+ -4.0v, 54m
+ -3.0v, 50m
+ -2.0v, 40m
+ -1.0v, 23m
+ 0.0v, 0m
+ 0.5v, -13m
+ 1.0v, -23m
+ 1.5v, -33m
+ 2.0v, -40m
+ 2.5v, -46m
+ 3.0v, -50m
+ 3.5v, -52m
+ 4.0v, -54m
+ 4.5v, -55m
+ 5.0v, -57m
+ 10.0v, -66m
Rdum9 230 0 10meg
Rdum10 250 0 10meg
Rdum11 270 300 10meg
*
******* Output clamp to VCC ********
GVcc_out 220 300 TABLE {V(300,220)}
+ -5.0v, 970m
+ -1.0v, 74m
+ -0.9v, 52m
+ -0.8v, 30m
+ -0.7v, 4m
+ -0.6v, 0m
+ -0.5v, 0m
+ -0.4v, 0m
+ 0.0v, 0m
*
******* Output Package *******
Cout_pkg 200 400 {C_pkg}
Rout_pkg 200 210 {R_pkg}
Lout_pkg 210 220 {L_pkg}
Rout_snb 210 220 100
Cout_die 220 400 {C_comp}
******* End of Subcircuit *******
.ENDS
*$

*                                         
*  Component:           S82374EB ESC
*  Signals:             SALE#
*  Buffer Type          I/O  
*  ESC3 Revision:       1.0
*
*  Model type:          best case:  min ramp time, min package parasitics, 
*                       min die capacitance, max output current
*
*
*
*                 	Input	Output	VCC	GND	Enable
.subckt ESC3_B 	        100  	200 	300 	400 	500
+ PARAMS:
+ R_pkg = 226m          ; package bond wire and lead resistance at output
+ L_pkg = 8.5n          ; package bond wire and lead inductance at output
+ C_pkg = 1.9p          ; package bond wire and lead capacitance at output
+ C_comp = 2p           ; die capacitance at output
+ dVdt_r = {5.25/0.94}  ; output rise time in V/ns
+ dVdt_f = {5.25/0.89}  ; output fall time in V/ns
*
*
******* Parameters *******
.PARAM Rtr = { (1/dVdt_r) * 1e5}
.PARAM Rtf = { (1/dVdt_f) * 1e5 }
.PARAM Vinh = 1.56v             ; Input high threshold voltage
.PARAM Vinl = 1.47v		; Input low threshold voltage
*
******* Input and Enable Threshld **********************
Ein_thr_dn 800 0 VALUE = {TABLE(V(100,400),
+ Vinl, 0,
+ Vinl+1e-6, 1)}
*
Ein_thr_up 810 0 VALUE = {TABLE (V(100,400),
+ Vinh-1e-6, 1,
+ Vinh, 0)}
*
Ein_thr 530 0 VALUE = {TABLE (V(500,400),
+ Vinl, 0,
+ Vinh, 1)}
*
Edn 820 0 VALUE = {LIMIT(V(800,0), 0, V(530,0))}
Eup 830 0 VALUE = {LIMIT(V(810,0), 0, V(530,0))}
Rdum1 530 0 10meg
Rdum2 800 0 10meg
Rdum3 810 0 10meg
Rdum4 820 0 10meg
Rdum5 830 0 10meg
*
******** Rise & Fall Time *******
Gramp_dn 840 400a VALUE={v(840,400a) / (abs(v(840,400) * Rtf
+ + V(820,400) * 1e9) + 1e-4) }
rgramp_dn 400a 400 0.1
Cramp_dn 840 400 0.01p
*
GRchrg_dn 840 220 VALUE={v(840,220)/(abs(v(830,0) * 1e+7)+1e-4)}
cchrg_dn 840 220 1f
rchrg_dn 840 220 10meg
*
Gramp_up 300a 850 VALUE = {v(300a,850) / (abs(v(300,850) * Rtr +
+ V(830,400) * 1e9) + 1e-4)}
Vramp_up 300a 300 10u
Cramp_up 850 300 0.01pf
*
ERchrg_up 850 220b VALUE = {I(Vchrg_up) * (abs(v(820,0) * 1e9) + 1e-4)}
Vchrg_up 220b 220 0
cchrg_up 850 220 5f
*
******* Output Pulldown *******
Esw_dn 240 0 VALUE = { TABLE(v(840),
+ 4.5-1e-5, 1,
+ 4.5, 0) }
*
Rout_dn 220 400 1
Gadj_dn 220 400 VALUE = {V(280,220)}
Elim_dn 280 400 VALUE = {LIMIT(v(260,0), -v(240,0)*1e3, v(240,0)*1e3)}
Epwl_dn 260 0 TABLE {v(220,840)}
+ -5.0v, -156m
+ -4.0v, -154m
+ -3.0v, -150m
+ -2.0v, -136m
+ -1.0v, -90m
+ 0.0v, 0m
+ 0.5v, 52m
+ 1.0v, 90m
+ 1.5v, 118
+ 2.0v, 136m
+ 2.5v, 146m
+ 3.0v, 150m
+ 3.5v, 152m
+ 4.0v, 154m
+ 4.5v, 155m
+ 5.0v, 156m
+ 10.0v, 166m
Rdum6 240 0 10meg
Rdum7 260 0 10meg
Rdum8 280 400 10meg
*
******* Output clamp to GND *******
Ggnd_out 220 400 TABLE {v(220,400)}
+ -5.0v, -1680m
+ -1.0v, -108m
+ -0.9v, -69m
+ -0.8v, -35m
+ -0.7v, -5m
+ -0.6v, 0m
+ -0.5v, 0m
+ -0.4v, 0m
+ 0.0v, 0m
*
******* Output pullup *******
Esw_up 230 0 VALUE = {TABLE(v(850),
+ 0.5, 0,
+ 0.5+1e-5, 1 )}
*
Rout_up 300 220 1
Gadj_up 300 220 VALUE={v(220,270)}
Elim_up 300 270 VALUE={LIMIT(v(0,250), -v(230)*1e3, v(230)*1e3)}
Epwl_up 250 0 TABLE={v(850,220)}
+ -5.0v, 159m
+ -4.0v, 149m
+ -3.0v, 135m
+ -2.0v, 108m
+ -1.0v, 62m
+ 0.0v, 0m
+ 0.5v, -33m
+ 1.0v, -62m
+ 1.5v, -89m
+ 2.0v, -108m
+ 2.5v, -124m
+ 3.0v, -135m
+ 3.5v, -143m
+ 4.0v, -149m
+ 4.5v, -155m
+ 5.0v, -159m
+ 10.0v, -182m
Rdum9 230 0 10meg
Rdum10 250 0 10meg
Rdum11 270 300 10meg
*
******* Output clamp to VCC ********
GVcc_out 220 300 TABLE {V(300,220)}
+ -5.0v, 870m
+ -1.0v, 71m
+ -0.9v, 50m
+ -0.8v, 30m
+ -0.7v, 4m
+ -0.6v, 0m
+ -0.5v, 0m
+ -0.4v, 0m
+ 0.0v, 0m
*
******* Output Package *******
Cout_pkg 200 400 {C_pkg}
Rout_pkg 200 210 {R_pkg}
Lout_pkg 210 220 {L_pkg}
Rout_snb 210 220 100
Cout_die 220 400 {C_comp}
******* End of Subcircuit *******
.ENDS
*$

*                                         
*  Component:           S82374EB ESC
*  Signals:             SALE#
*  Buffer Type          I/O  
*  ESC3 Revision:       1.0
*
*  Model type:          worst case:  max ramp time, max package parasitics, 
*                       max die capacitance, min output current
*
*
*
*                 	Input	Output	VCC	GND	Enable
.subckt ESC3_W 	        100  	200 	300 	400 	500
+ PARAMS:
+ R_pkg = 405m          ; package bond wire and lead resistance at output
+ L_pkg = 15.1n         ; package bond wire and lead inductance at output
+ C_pkg = 2.8p          ; package bond wire and lead capacitance at output
+ C_comp = 7.2p         ; die capacitance at output
+ dVdt_r = {4.75/1.85}  ; output rise time in V/ns
+ dVdt_f = {4.75/2.00}  ; output fall time in V/ns
*
*
******* Parameters *******
.PARAM Rtr = { (1/dVdt_r) * 1e5}
.PARAM Rtf = { (1/dVdt_f) * 1e5 }
.PARAM Vinh = 1.56v             ; Input high threshold voltage
.PARAM Vinl = 1.47v		; Input low threshold voltage
*
******* Input and Enable Threshld **********************
Ein_thr_dn 800 0 VALUE = {TABLE(V(100,400),
+ Vinl, 0,
+ Vinl+1e-6, 1)}
*
Ein_thr_up 810 0 VALUE = {TABLE (V(100,400),
+ Vinh-1e-6, 1,
+ Vinh, 0)}
*
Ein_thr 530 0 VALUE = {TABLE (V(500,400),
+ Vinl, 0,
+ Vinh, 1)}
*
Edn 820 0 VALUE = {LIMIT(V(800,0), 0, V(530,0))}
Eup 830 0 VALUE = {LIMIT(V(810,0), 0, V(530,0))}
Rdum1 530 0 10meg
Rdum2 800 0 10meg
Rdum3 810 0 10meg
Rdum4 820 0 10meg
Rdum5 830 0 10meg
*
******** Rise & Fall Time *******
Gramp_dn 840 400a VALUE={v(840,400a) / (abs(v(840,400) * Rtf
+ + V(820,400) * 1e9) + 1e-4) }
rgramp_dn 400a 400 0.1
Cramp_dn 840 400 0.01p
*
GRchrg_dn 840 220 VALUE={v(840,220)/(abs(v(830,0) * 1e+7)+1e-4)}
cchrg_dn 840 220 1f
rchrg_dn 840 220 10meg
*
Gramp_up 300a 850 VALUE = {v(300a,850) / (abs(v(300,850) * Rtr +
+ V(830,400) * 1e9) + 1e-4)}
Vramp_up 300a 300 10u
Cramp_up 850 300 0.01pf
*
ERchrg_up 850 220b VALUE = {I(Vchrg_up) * (abs(v(820,0) * 1e9) + 1e-4)}
Vchrg_up 220b 220 0
cchrg_up 850 220 5f
*
******* Output Pulldown *******
Esw_dn 240 0 VALUE = { TABLE(v(840),
+ 4.5-1e-5, 1,
+ 4.5, 0) }
*
Rout_dn 220 400 1
Gadj_dn 220 400 VALUE = {V(280,220)}
Elim_dn 280 400 VALUE = {LIMIT(v(260,0), -v(240,0)*1e3, v(240,0)*1e3)}
Epwl_dn 260 0 TABLE {v(220,840)}
+ -5.0v, -79m
+ -4.0v, -77m
+ -3.0v, -74m
+ -2.0v, -66m
+ -1.0v, -41m
+ 0.0v, 0m
+ 0.5v, 23m
+ 1.0v, 41m
+ 1.5v, 55m
+ 2.0v, 66m
+ 2.5v, 72m
+ 3.0v, 74m
+ 3.5v, 76m
+ 4.0v, 77m
+ 4.5v, 78m
+ 5.0v, 79m
+ 10.0v, 89m
Rdum6 240 0 10meg
Rdum7 260 0 10meg
Rdum8 280 400 10meg
*
******* Output clamp to GND *******