* Library of digital logic: ECL 10K and 100K

* Copyright 1994-1995 by MicroSim Corporation
* Neither this library nor any part may be copied without the express
* written consent of MicroSim Corporation

* Release date: January 1994

* $Revision:   1.13  $
* $Author:   ANW  $
* $Date:   02 Mar 1995 16:33:54  $
*
*
** ECL 10K LOGIC
*
*  Created 07/17/91 (jjr, tdn)
*
*$
*-------------------------------------------------------------------------
* ECL Output 50 ohm termination/load
*
* muw   07/16/91	Created

.subckt ECL_10K_LOAD_50 A
+	optional: VTT =$G_ECL_10K_VTT  VCC2=$G_ECL_10K_VCC2
+	params: MNTYMXDLY=0 IO_LEVEL=0

X1 A VCC2 VTT PULLDOWN_50
.ends

*$
*-------------------------------------------------------------------------
* 10100 Quad 2-Input NOR Gate With Strobe
*
* Philips ECL Databook June 1990
* jjr	07/18/91	Created

.subckt 10100 ST D0 D1 D2 D3 D4 D5 D6 D7 Q0BAR Q1BAR Q2BAR Q3BAR
+	optional: VEE =$G_ECL_10K_VEE  VCC1=$G_ECL_10K_VCC1
+                 VCC2=$G_ECL_10K_VCC2
+	params: MNTYMXDLY=0 IO_LEVEL=0

U1 NORA(3,4) VCC1 VEE 
+       D0 D1 STBUF D2 D3 STBUF D4 D5 STBUF D6 D7 STBUF
+       Q0B Q1B Q2B Q3B
+       D0_GATE IO_10K_IN  IO_LEVEL={IO_LEVEL} 
U2 PULLDN(9) VCC1 VEE
+       ST D0 D1 D2 D3 D4 D5 D6 D7
+       IO_10K_PULLDN  IO_LEVEL={IO_LEVEL}
U3 BUF  VCC1 VEE
+       ST STBUF
+       D0_GATE IO_10K_IN IO_LEVEL={IO_LEVEL}
U4 BUFA(4) VCC2 VEE
+       Q0B   Q1B   Q2B   Q3B
+       Q0BAR Q1BAR Q2BAR Q3BAR
+       D_10100 IO_10K_OUT MNTYMXDLY={MNTYMXDLY} IO_LEVEL={IO_LEVEL}
.ends

.model D_10100 ugate (
+       tplhmn=1.00ns  tplhty=2.00ns
+	tplhmx={table(temp, -30, 3.10ns,  25, 2.90ns,  85, 3.30ns)}
+       tphlmn=1.00ns  tphlty=2.00ns
+	tphlmx={table(temp, -30, 3.10ns,  25, 2.90ns,  85, 3.30ns)}
+       )

*$
*-------------------------------------------------------------------------
* 10101 Quad 2-Input OR/NOR Gate With Strobe
*
* Philips ECL Databook June 1990
* jjr   07/19/91	Created

.subckt 10101 ST D0 D1 D2 D3 Q0BAR Q1 Q2BAR Q3 Q4BAR Q5 Q6BAR Q7
+	optional: VEE =$G_ECL_10K_VEE  VCC1=$G_ECL_10K_VCC1
+                 VCC2=$G_ECL_10K_VCC2
+	params: MNTYMXDLY=0 IO_LEVEL=0

U1 ORA(2,4) VCC1 VEE 
+       D0 STBUF D1 STBUF D2 STBUF D3 STBUF
+	Q1B Q3B Q5B Q7B
+       D0_GATE IO_10K_IN  IO_LEVEL={IO_LEVEL} 
U2 PULLDN(5) VCC1 VEE
+       ST D0 D1 D2 D3
+       IO_10K_PULLDN  IO_LEVEL={IO_LEVEL}
U3 BUF  VCC1 VEE
+       ST STBUF
+       D0_GATE IO_10K_IN IO_LEVEL={IO_LEVEL}
U4 BUFA(4) VCC2 VEE
+	Q1B Q3B Q5B Q7B
+	Q1  Q3  Q5  Q7
+	D_10101 IO_10K_OUT  IO_LEVEL={IO_LEVEL} MNTYMXDLY={MNTYMXDLY}
U5 INVA(4) VCC2 VEE
+	Q1B   Q3B   Q5B   Q7B
+	Q0BAR Q2BAR Q4BAR Q6BAR
+	D_10101 IO_10K_OUT  IO_LEVEL={IO_LEVEL} MNTYMXDLY={MNTYMXDLY}
.ends

.model D_10101 ugate (
+       tplhmn=1.00ns  tplhty=2.00ns
+	tplhmx={table(temp, -30, 3.10ns,  25, 2.90ns,  85, 3.30ns)}
+       tphlmn=1.00ns  tphlty=2.00ns
+	tphlmx={table(temp, -30, 3.10ns,  25, 2.90ns,  85, 3.30ns)}
+       )

*$
*-------------------------------------------------------------------------
* 10102 Quad 2-Input NOR Gate (3 NOR and 1 OR/NOR)
*
* Philips ECL Databook June 1990
* jjr   07/19/91	Created

.subckt 10102 D0 D1 D2 D3 D4 D5 D6 D7 Q0BAR Q1BAR Q2BAR Q3BAR Q4
+	optional: VEE =$G_ECL_10K_VEE  VCC1=$G_ECL_10K_VCC1
+                 VCC2=$G_ECL_10K_VCC2
+	params: MNTYMXDLY=0 IO_LEVEL=0

U1 ORA(2,4) VCC1 VEE 
+       D0 D1 D2 D3 D4 D5 D6 D7
+	Q0B Q1B Q2B Q3B
+       D0_GATE IO_10K_IN  IO_LEVEL={IO_LEVEL} 
U2 PULLDN(8) VCC1 VEE
+       D0 D1 D2 D3 D4 D5 D6 D7
+       IO_10K_PULLDN  IO_LEVEL={IO_LEVEL}
U3 BUF VCC2 VEE
+	Q3B  Q4
+	D_10102 IO_10K_OUT  IO_LEVEL={IO_LEVEL} MNTYMXDLY={MNTYMXDLY}
U4 INVA(4) VCC2 VEE
+	Q0B   Q1B   Q2B   Q3B
+	Q0BAR Q1BAR Q2BAR Q3BAR
+	D_10102 IO_10K_OUT  IO_LEVEL={IO_LEVEL} MNTYMXDLY={MNTYMXDLY}
.ends

.model D_10102 ugate (
+       tplhmn=1.00ns  tplhty=2.00ns
+	tplhmx={table(temp, -30, 3.10ns,  25, 2.90ns,  85, 3.30ns)}
+       tphlmn=1.00ns  tphlty=2.00ns
+	tphlmx={table(temp, -30, 3.10ns,  25, 2.90ns,  85, 3.30ns)}
+       )

*$
*-------------------------------------------------------------------------
* 10103 Quad 2-Input OR Gate (3 OR and 1 OR/NOR)
*
* Philips ECL Databook June 1990
* jjr   07/19/91	Created

.subckt 10103 D0 D1 D2 D3 D4 D5 D6 D7 Q0 Q1 Q2 Q3 Q3BAR
+	optional: VEE =$G_ECL_10K_VEE  VCC1=$G_ECL_10K_VCC1
+                 VCC2=$G_ECL_10K_VCC2
+	params: MNTYMXDLY=0 IO_LEVEL=0

U1 ORA(2,4) VCC1 VEE 
+       D0 D1 D2 D3 D4 D5 D6 D7
+	Q0B Q1B Q2B Q3B
+       D0_GATE IO_10K_IN  IO_LEVEL={IO_LEVEL} 
U2 PULLDN(8) VCC1 VEE
+       D0 D1 D2 D3 D4 D5 D6 D7
+       IO_10K_PULLDN  IO_LEVEL={IO_LEVEL}
U3 BUFA(4) VCC2 VEE
+	Q0B Q1B Q2B Q3B
+	Q0  Q1  Q2  Q3
+	D_10103 IO_10K_OUT  IO_LEVEL={IO_LEVEL} MNTYMXDLY={MNTYMXDLY}
U4 INV VCC2 VEE
+	Q3B  Q3BAR
+	D_10103 IO_10K_OUT  IO_LEVEL={IO_LEVEL} MNTYMXDLY={MNTYMXDLY}
.ends

.model D_10103 ugate (
+       tplhmn=1.00ns  tplhty=2.00ns
+	tplhmx={table(temp, -30, 3.10ns,  25, 2.90ns,  85, 3.30ns)}
+       tphlmn=1.00ns  tphlty=2.00ns
+	tphlmx={table(temp, -30, 3.10ns,  25, 2.90ns,  85, 3.30ns)}
+       )

*$
*-------------------------------------------------------------------------
* 10104 Quad 2-Input AND Gate
*
* Philips ECL Databook June 1990
* tdn   07/19/91	Created

.subckt 10104 D0 D1 D2 D3 D4 D5 D6 D7 Q0 Q1 Q2 Q3 Q3BAR
+	optional: VEE =$G_ECL_10K_VEE  VCC1=$G_ECL_10K_VCC1
+                 VCC2=$G_ECL_10K_VCC2
+	params: MNTYMXDLY=0 IO_LEVEL=0
U1 ANDA(2,4) VCC1 VEE 
+       D0 D1 D2 D3 D4 D5 D6 D7 
+       Q0B Q1B Q2B Q3B
+       D0_GATE IO_10K_IN  IO_LEVEL={IO_LEVEL}
U2 PULLDN(8) VCC1 VEE
+       D0 D1 D2 D3 D4 D5 D6 D7 
+       IO_10K_PULLDN  IO_LEVEL={IO_LEVEL}
U3 INV  VCC2 VEE
+       Q3B Q3BAR
+       D_10104 IO_10K_OUT MNTYMXDLY={MNTYMXDLY} IO_LEVEL={IO_LEVEL}
U4 BUFA(4) VCC2 VEE
+       Q0B Q1B Q2B Q3B 
+       Q0  Q1  Q2  Q3     
+       D_10104 IO_10K_OUT MNTYMXDLY={MNTYMXDLY} IO_LEVEL={IO_LEVEL}
.ends

.model D_10104 ugate (
+	tplhmn=1.00ns  tplhty=2.70ns  
+	tplhmx={table(temp, -30, 4.30ns, 25, 4.00ns, 85, 4.20ns)}
+	tphlmn=1.00ns  tphlty=2.70ns  
+	tphlmx={table(temp, -30, 4.30ns, 25, 4.00ns, 85, 4.20ns)}
+       )

*$
*-------------------------------------------------------------------------
* 10105 Triple 2-3-2 Input OR/NOR Gate
*
* Philips ECL Databook June 1990
* jjr   07/19/91	Created

.subckt 10105 D0 D1 D2 D3 D4 D5 D6 Q0 Q1BAR Q2 Q3BAR Q4 Q5BAR
+	optional: VEE =$G_ECL_10K_VEE  VCC1=$G_ECL_10K_VCC1
+                 VCC2=$G_ECL_10K_VCC2
+	params: MNTYMXDLY=0 IO_LEVEL=0

U1 ORA(3,3) VCC1 VEE 
+       D0 D1 $D_LO D2 D3 D4 D5 D6 $D_LO
+	Q0B Q2B Q4B
+       D0_GATE IO_10K_IN  IO_LEVEL={IO_LEVEL} 
U2 PULLDN(7) VCC1 VEE
+       D0 D1 D2 D3 D4 D5 D6
+       IO_10K_PULLDN  IO_LEVEL={IO_LEVEL}
U3 BUFA(3) VCC2 VEE
+	Q0B Q2B Q4B
+	Q0  Q2  Q4
+	D_10105 IO_10K_OUT  IO_LEVEL={IO_LEVEL} MNTYMXDLY={MNTYMXDLY}
U4 INVA(3) VCC2 VEE
+	Q0B   Q2B   Q4B
+	Q1BAR Q3BAR Q5BAR
+	D_10105 IO_10K_OUT  IO_LEVEL={IO_LEVEL} MNTYMXDLY={MNTYMXDLY}
.ends

.model D_10105 ugate (
+       tplhmn=1.00ns  tplhty=2.00ns
+	tplhmx={table(temp, -30, 3.10ns,  25, 2.90ns,  85, 3.30ns)}
+       tphlmn=1.00ns  tphlty=2.00ns
+	tphlmx={table(temp, -30, 3.10ns,  25, 2.90ns,  85, 3.30ns)}
+       )

*$
*-------------------------------------------------------------------------
* 10106 Triple 4-3-3 Input NOR Gate
*
* Philips ECL Databook June 1990
* jjr   07/17/91	Created

.subckt 10106 D0 D1 D2 D3 D4 D5 D6 D7 D8 D9 Q0BAR Q1BAR Q2BAR
+	optional: VEE =$G_ECL_10K_VEE  VCC1=$G_ECL_10K_VCC1
+                 VCC2=$G_ECL_10K_VCC2
+	params: MNTYMXDLY=0 IO_LEVEL=0

U1 NORA(4,3) VCC1 VEE 
+       D0 D1 D2 D3 D4 D5 D6 $D_LO D7 D8 D9 $D_LO
+	Q0B Q1B Q2B
+       D0_GATE IO_10K_IN  IO_LEVEL={IO_LEVEL} 
U2 PULLDN(10) VCC1 VEE
+       D0 D1 D2 D3 D4 D5 D6 D7 D8 D9
+       IO_10K_PULLDN  IO_LEVEL={IO_LEVEL}
U3 BUFA(3) VCC2 VEE
+	Q0B   Q1B   Q2B
+	Q0BAR Q1BAR Q2BAR
+	D_10106 IO_10K_OUT  IO_LEVEL={IO_LEVEL} MNTYMXDLY={MNTYMXDLY}
.ends

.model D_10106 ugate (
+       tplhmn=1.00ns  tplhty=2.00ns
+	tplhmx={table(temp, -30, 3.10ns,  25, 2.90ns,  85, 3.30ns)}
+       tphlmn=1.00ns  tphlty=2.00ns
+	tphlmx={table(temp, -30, 3.10ns,  25, 2.90ns,  85, 3.30ns)}
+       )

*$
*-------------------------------------------------------------------------
* 10107 Triple 2-Input Exclusive-OR/Exclusive-NOR Gate
*
* Philips ECL Databook June 1990
* tdn   07/17/91	Created

.subckt 10107 D0 D1 Q0BAR Q1
+	optional: VEE =$G_ECL_10K_VEE  VCC1=$G_ECL_10K_VCC1
+                 VCC2=$G_ECL_10K_VCC2
+	params: MNTYMXDLY=0 IO_LEVEL=0
U1 XOR  VCC1 VEE 
+       D0 D1 QB
+       D0_GATE IO_10K_IN  IO_LEVEL={IO_LEVEL}
U2 PULLDN(2) VCC1 VEE
+       D0 D1  
+       IO_10K_PULLDN  IO_LEVEL={IO_LEVEL}
U3 INV  VCC2 VEE
+       QB Q0BAR
+       D_10107 IO_10K_OUT MNTYMXDLY={MNTYMXDLY} IO_LEVEL={IO_LEVEL}
U4 BUF  VCC2 VEE
+       QB  Q1      
+       D_10107 IO_10K_OUT MNTYMXDLY={MNTYMXDLY} IO_LEVEL={IO_LEVEL}
.ends

.model D_10107 ugate (
+	tplhmn=1.10ns  tplhty=2.80ns  
+	tplhmx={table(temp, -30, 3.80ns, 25, 3.70ns, 85, 4.00ns)}
+	tphlmn=1.10ns  tphlty=2.80ns  
+	tphlmx={table(temp, -30, 3.80ns, 25, 3.70ns, 85, 4.00ns)}
+       )

*$
*-------------------------------------------------------------------------
* 10108 Dual 4-Input AND/NAND Gate
*
* Philips ECL Databook June 1990
* tdn   07/18/91	Created

.subckt 10108 D0 D1 D2 D3 Q0 Q1BAR 
+	optional: VEE =$G_ECL_10K_VEE  VCC1=$G_ECL_10K_VCC1
+                 VCC2=$G_ECL_10K_VCC2
+	params: MNTYMXDLY=0 IO_LEVEL=0
U1 AND (4) VCC1 VEE 
+       D0 D1 D2 D3 QB
+       D0_GATE IO_10K_IN  IO_LEVEL={IO_LEVEL}
U2 PULLDN(4) VCC1 VEE
+       D0 D1 D2 D3 
+       IO_10K_PULLDN  IO_LEVEL={IO_LEVEL}
U3 INV  VCC2 VEE
+       QB Q1BAR
+       D_10108 IO_10K_OUT MNTYMXDLY={MNTYMXDLY} IO_LEVEL={IO_LEVEL}
U4 BUF  VCC2 VEE
+       QB  Q0      
+       D_10108 IO_10K_OUT MNTYMXDLY={MNTYMXDLY} IO_LEVEL={IO_LEVEL}
.ends

.model D_10108 ugate (
+	tplhmn=1.40ns  tplhty=2.30ns  
+       tplhmx={table(temp, -30, 4.10ns, 25, 3.70ns, 85, 4.10ns)}
+	tphlmn=1.40ns  tphlty=2.30ns  
+	tphlmx={table(temp, -30, 4.10ns, 25, 3.70ns, 85, 4.10ns)}
+       )

*$
*-------------------------------------------------------------------------
* 10109 Dual 4-5 Input OR/NOR Gate
*
* Philips ECL Databook June 1990
* jjr   07/18/91	Created

.subckt 10109 D0 D1 D2 D3 D4 D5 D6 D7 D8 Q0BAR Q1 Q2BAR Q3
+	optional: VEE =$G_ECL_10K_VEE  VCC1=$G_ECL_10K_VCC1
+                 VCC2=$G_ECL_10K_VCC2
+	params: MNTYMXDLY=0 IO_LEVEL=0

U1 ORA(5,2) VCC1 VEE 
+       D0 D1 D2 D3 $D_LO D4 D5 D6 D7 D8
+	Q1B Q3B
+       D0_GATE IO_10K_IN  IO_LEVEL={IO_LEVEL} 
U2 PULLDN(9) VCC1 VEE
+       D0 D1 D2 D3 D4 D5 D6 D7 D8
+       IO_10K_PULLDN  IO_LEVEL={IO_LEVEL}
U3 BUFA(2) VCC2 VEE
+	Q1B  Q3B
+	Q1   Q3
+	D_10109 IO_10K_OUT  IO_LEVEL={IO_LEVEL} MNTYMXDLY={MNTYMXDLY}
U4 INVA(2) VCC2 VEE
+	Q1B   Q3B
+	Q0BAR Q2BAR
+	D_10109 IO_10K_OUT  IO_LEVEL={IO_LEVEL} MNTYMXDLY={MNTYMXDLY}
.ends

.model D_10109 ugate (
+       tplhmn=1.00ns  tplhty=2.00ns
+	tplhmx={table(temp, -30, 3.10ns,  25, 2.90ns,  85, 3.30ns)}
+       tphlmn=1.00ns  tphlty=2.00ns
+	tphlmx={table(temp, -30, 3.10ns,  25, 2.90ns,  85, 3.30ns)}
+       )

*$
*-------------------------------------------------------------------------
* 10113 Quad Exclusive-OR Gate with Enable Input
*
* Philips ECL Databook June 1990
* tdn   07/17/91	Created

.subckt 10113 EBAR D0 D1 D2 D3 D4 D5 D6 D7 Q0 Q1 Q2 Q3 
+	optional: VEE =$G_ECL_10K_VEE  VCC1=$G_ECL_10K_VCC1
+                 VCC2=$G_ECL_10K_VCC2
+	params: MNTYMXDLY=0 IO_LEVEL=0
U1 XORA(4) VCC1 VEE 
+       D0 D1 D2 D3 D4 D5 D6 D7
+       D1B D2B D3B D4B
+       D0_GATE IO_10K_IN  IO_LEVEL={IO_LEVEL}
U2 INV  VCC1 VEE
+       EBAR EBUF
+       D_10113_1 IO_10K_IN MNTYMXDLY={MNTYMXDLY} IO_LEVEL={IO_LEVEL}
U3 PULLDN(9) VCC1 VEE
+       D0 D1 D2 D3 D4 D5 D6 D7 EBAR
+       IO_10K_PULLDN  IO_LEVEL={IO_LEVEL}
U4 ANDA(2,4) VCC2 VEE
+       D1B EBUF D2B EBUF D3B EBUF D4B EBUF
+       Q0 Q1 Q2 Q3
+       D_10113_2 IO_10K_OUT MNTYMXDLY={MNTYMXDLY} IO_LEVEL={IO_LEVEL}
.ends

.model D_10113_1 ugate (
+       tplhmn={table(temp, -30, 0.10ns, 25, 0.20ns, 85, 0.20ns)}
+	tplhty=0.80ns  
+	tplhmx={table(temp, -30, 0.30ns, 25, 0.30ns, 85, 0.40ns)}
+	tphlmn={table(temp, -30, 0.10ns, 25, 0.20ns, 85, 0.20ns)}  
+	tphlty=0.80ns  
+	tphlmx={table(temp, -30, 0.30ns, 25, 0.30ns, 85, 0.40ns)}
+       )
.model D_10113_2 ugate (
+       tplhmn={table(temp, -30, 1.20ns, 25, 1.30ns, 85, 1.30ns)}  
+	tplhty=2.60ns  
+	tplhmx={table(temp, -30, 3.80ns, 25, 3.70ns, 85, 4.20ns)}
+       tphlmn={table(temp, -30, 1.20ns, 25, 1.30ns, 85, 1.30ns)}  
+	tphlty=2.60ns  
+       tphlmx={table(temp, -30, 3.80ns, 25, 3.70ns, 85, 4.20ns)}
+       )

*$
*-------------------------------------------------------------------------
* 10117 Dual 2-Wide 2-3 Input OR-AND/OR-AND-INVERT Gate
*
* Philips ECL Databook June 1990
* tdn   07/19/91	Created

.subckt 10117 D0 D1 D2 D3 D4 D5 D6 D7 D8 Q0BAR Q1 Q2BAR Q3 
+	optional: VEE =$G_ECL_10K_VEE  VCC1=$G_ECL_10K_VCC1
+                 VCC2=$G_ECL_10K_VCC2
+	params: MNTYMXDLY=0 IO_LEVEL=0
U1 OA  (3,2) VCC1 VEE 
+       D0 D1 $D_LO D2 D3 D4BUF 
+       Q0B 
+       D0_GATE IO_10K_IN  IO_LEVEL={IO_LEVEL}
U2 OA  (3,2) VCC1 VEE 
+       D4BUF D5 D6 D7 D8 $D_LO
+       Q1B
+       D0_GATE IO_10K_IN  IO_LEVEL={IO_LEVEL}
U3 BUF  VCC1 VEE
+       D4  D4BUF     
+       D0_GATE IO_10K_IN IO_LEVEL={IO_LEVEL}
U4 PULLDN(9) VCC1 VEE
+       D0 D1 D2 D3 D4 D5 D6 D7 D8 
+       IO_10K_PULLDN  IO_LEVEL={IO_LEVEL}
U5 INVA(2) VCC2 VEE
+       Q0B   Q1B
+       Q0BAR Q2BAR
+       D_10117 IO_10K_OUT MNTYMXDLY={MNTYMXDLY} IO_LEVEL={IO_LEVEL}
U6 BUFA(2) VCC2 VEE
+       Q0B Q1B  
+       Q1  Q3       
+       D_10117 IO_10K_OUT MNTYMXDLY={MNTYMXDLY} IO_LEVEL={IO_LEVEL}
.ends

.model D_10117 ugate (
+       tplhmn=1.40ns  tplhty=2.30ns  
+	tplhmx={table(temp, -30, 3.90ns, 25, 3.40ns, 85, 3.80ns)}
+       tphlmn=1.40ns  tphlty=2.30ns  
+	tphlmx={table(temp, -30, 3.90ns, 25, 3.40ns, 85, 3.80ns)}
+       )

*$
*-------------------------------------------------------------------------
* 10118 Dual 2-Wide 3-Input OR-AND Gate
*
* Philips ECL Databook June 1990
* tdn   07/19/91	Created

.subckt 10118 D0 D1 D2 D3 D4 D5 D6 D7 D8 D9 D10 Q0 Q1
+	optional: VEE =$G_ECL_10K_VEE  VCC1=$G_ECL_10K_VCC1
+                 VCC2=$G_ECL_10K_VCC2
+	params: MNTYMXDLY=0 IO_LEVEL=0
U1 OA  (3,2) VCC1 VEE 
+       D0 D1 D2 D3 D4 D5BUF 
+       Q0B 
+       D0_GATE IO_10K_IN  IO_LEVEL={IO_LEVEL}
U2 OA  (3,2) VCC1 VEE 
+       D5BUF D6 D7 D8 D9 D10
+       Q1B
+       D0_GATE IO_10K_IN  IO_LEVEL={IO_LEVEL}
U3 BUF  VCC1 VEE
+       D5  D5BUF     
+       D0_GATE IO_10K_IN IO_LEVEL={IO_LEVEL}
U4 PULLDN(11) VCC1 VEE
+       D0 D1 D2 D3 D4 D5 D6 D7 D8 D9 D10 
+       IO_10K_PULLDN  IO_LEVEL={IO_LEVEL}
U5 BUFA(2) VCC2 VEE 
+       Q0B Q1B Q0 Q1 
+       D_10118 IO_10K_OUT MNTYMXDLY={MNTYMXDLY} IO_LEVEL={IO_LEVEL}
.ends

.model D_10118 ugate (
+	tplhmn=1.40ns  tplhty=2.30ns  
+	tplhmx={table(temp, -30, 3.90ns, 25, 3.40ns, 85, 3.80ns)}
+	tphlmn=1.40ns  tphlty=2.30ns  
+	tphlmx={table(temp, -30, 3.90ns, 25, 3.40ns, 85, 3.80ns)}
+       )

*$
*-------------------------------------------------------------------------
* 10119 4-Wide 4-3-3-3-Input OR-AND Gate
*
* Philips ECL Databook June 1990
* tdn   07/19/91	Created

.subckt 10119 D0 D1 D2 D3 D4 D5 D6 D7 D8 D9 D10 D11 Q
+	optional: VEE =$G_ECL_10K_VEE  VCC1=$G_ECL_10K_VCC1
+                 VCC2=$G_ECL_10K_VCC2
+	params: MNTYMXDLY=0 IO_LEVEL=0
U1 OA  (4,4) VCC1 VEE 
+       D0 D1 D2 D3 D4 D5 D6BUF $D_LO D6BUF D7 D8 $D_LO D9 D10 D11 $D_LO
+       QB
+       D0_GATE IO_10K_IN  IO_LEVEL={IO_LEVEL}
U2 BUF  VCC1 VEE
+       D6  D6BUF     
+       D0_GATE IO_10K_IN IO_LEVEL={IO_LEVEL}
U3 PULLDN(12) VCC1 VEE
+       D0 D1 D2 D3 D4 D5 D6 D7 D8 D9 D10 D11 
+       IO_10K_PULLDN  IO_LEVEL={IO_LEVEL}
U4 BUF  VCC2 VEE 
+       QB Q
+       D_10119 IO_10K_OUT MNTYMXDLY={MNTYMXDLY} IO_LEVEL={IO_LEVEL}
.ends

.model D_10119 ugate (
+	tplhmn=1.40ns  tplhty=2.30ns  
+	tplhmx={table(temp, -30, 3.90ns, 25, 3.40ns, 85, 3.80ns)}
+	tphlmn=1.40ns  tphlty=2.30ns  
+	tphlmx={table(temp, -30, 3.90ns, 25, 3.40ns, 85, 3.80ns)}
+       )

*$
*-------------------------------------------------------------------------
* 10121 4-Wide OR-AND/OR-AND-INVERT Gate
*
* Philips ECL Databook June 1990
* tdn   07/19/91	Created

.subckt 10121 D0 D1 D2 D3 D4 D5 D6 D7 D8 D9 D10 Q0BAR Q1
+	optional: VEE =$G_ECL_10K_VEE  VCC1=$G_ECL_10K_VCC1
+                 VCC2=$G_ECL_10K_VCC2
+	params: MNTYMXDLY=0 IO_LEVEL=0
U1 OA  (3,4) VCC1 VEE 
+       D0 D1 D2 D3 D4 D5BUF D5BUF D6 D7 D8 D9 D10 
+       QB
+       D0_GATE IO_10K_IN  IO_LEVEL={IO_LEVEL}
U2 BUF  VCC1 VEE
+       D5  D5BUF     
+       D0_GATE IO_10K_IN IO_LEVEL={IO_LEVEL}
U3 PULLDN(11) VCC1 VEE
+       D0 D1 D2 D3 D4 D5 D6 D7 D8 D9 D10  
+       IO_10K_PULLDN  IO_LEVEL={IO_LEVEL}
U4 INV  VCC2 VEE
+       QB Q0BAR
+       D_10121 IO_10K_OUT MNTYMXDLY={MNTYMXDLY} IO_LEVEL={IO_LEVEL}
U5 BUF  VCC2 VEE
+       QB  Q1       
+       D_10121 IO_10K_OUT MNTYMXDLY={MNTYMXDLY} IO_LEVEL={IO_LEVEL}
.ends

.model D_10121 ugate (
+	tplhmn=1.40ns  tplhty=2.30ns  
+	tplhmx={table(temp, -30, 3.90ns, 25, 3.40ns, 85, 3.80ns)}
+	tphlmn=1.40ns  tphlty=2.30ns  
+	tphlmx={table(temp, -30, 3.90ns, 25, 3.40ns, 85, 3.80ns)}
+       )
*$
*-------------------------------------------------------------------------
* 10124 TTL-to-ECL Translator

* Philips ECL Databook June 1990

.subckt 10124 D0 D1 D2 D3 S Q0bar Q1 Q2bar Q3 Q4bar Q5 Q6bar Q7
+ optional:  VEE=$G_ECL_10K_VEE  VCC=$G_DPWR  GND=$G_DGND
+ params:    MNTYMXDLY=0  IO_LEVEL=0

U1  bufa(5)    VCC GND
+   D0   D1   D2   D3   S              ; TTL inputs
+   D0b  D1b  D2b  D3b  Sb
+   D0_GATE   IO_S   IO_LEVEL={IO_LEVEL}

U2  nanda(2,4)  GND VEE
+   D0b Sb  D1b Sb  D2b Sb  D3b Sb
+   Q0bar   Q2bar   Q4bar   Q6bar      ; ECL outputs
+   D_10124 IO_10K_OUT MNTYMXDLY={MNTYMXDLY} IO_LEVEL={IO_LEVEL}

U3  anda(2,4)  GND VEE
+   D0b Sb  D1b Sb  D2b Sb  D3b Sb
+   Q1      Q3      Q5      Q7	       ; ECL outputs
+   D_10124 IO_10K_OUT MNTYMXDLY={MNTYMXDLY} IO_LEVEL={IO_LEVEL}

.ends

.model D_10124 ugate (
+       tplhmn=1.00ns    tplhty=3.50ns     tplhmx=6.50ns
+       tphlmn=1.00ns    tphlty=3.50ns     tphlmx=6.50ns
+       )

*$
*-------------------------------------------------------------------------

* 10125 ECL-to-TTL Translator

* The bias voltage generator is not modeled, although a pin is present.

* Philips ECL Databook June 1990
* imw     6/9/93    created

.subckt 10125 D0bar D0 D1bar D1 D2bar D2 D3bar D3 Q0 Q1 Q2 Q3 VBB
+ optional:  VEE=$G_ECL_10K_VEE  VCC=$G_DPWR  GND=$G_DGND
+ params:    MNTYMXDLY=0  IO_LEVEL=0

R1  VBB 0  100Meg
R2  VBB 0  100Meg

U1  bufa(4) GND VEE                       ; ECL inputs
+   D0  D1  D2  D3
+   Da0 Da1 Da2 Da3
+   D0_GATE IO_10K_IN  IO_LEVEL={IO_LEVEL}

U2  inva(4) GND VEE                       ; ECL inputs
+   D0bar D1bar D2bar D3bar
+   Db0   Db1   Db2   Db3
+   D0_GATE IO_10K_IN  IO_LEVEL={IO_LEVEL}

U3  ora(2,4)  VCC GND
+   Da0 Db0   Da1 Db1   Da2 Db2   Da3 Db3
+   Q0        Q1        Q2        Q3      ; TTL outputs
+   D_10125 IO_S     ; Schottky output
+   IO_LEVEL={IO_LEVEL} MNTYMXDLY={MNTYMXDLY}

.ends

.model D_10125 ugate (
+       tplhmn=1.00ns    tplhty=4.50ns     tplhmx=6.00ns
+       tphlmn=1.00ns    tphlty=4.50ns     tphlmx=6.00ns
+       )

*$
*-------------------------------------------------------------------------
* 10131 Dual D-Type Master-Slave Flip-Flop
*
* Philips ECL Databook June 1990
* jjr	07/22/91	Created

.subckt 10131 CE0BAR CE1BAR R0 S0 R1 S1 CP D0 D1 Q0 Q0BAR Q1 Q1BAR
+	optional: VEE =$G_ECL_10K_VEE  VCC1=$G_ECL_10K_VCC1
+                 VCC2=$G_ECL_10K_VCC2
+	params: MNTYMXDLY=0 IO_LEVEL=0

* Note: In accordance with the databook, all unused inputs must be tied
*	low, pulldown resistors are not incorporated in this model.
*
*	Despite the Master-Slave description, this device behaves as a
*	normal positive-edge-triggered D flip-flop.

U1 BUFA(3) VCC1 VEE
+	CP    D0    D1
+	CPBUF D0BUF D1BUF
+	D0_GATE IO_10K_IN  IO_LEVEL={IO_LEVEL}
U2 ORA(2,2) VCC1 VEE
+	CE0BAR CPBUF CE1BAR CPBUF
+	GATE0 GATE1
+	D0_GATE IO_10K_IN  IO_LEVEL={IO_LEVEL}
U3 INVA(4) VCC1 VEE
+	S0    S1    R0    R1
+	S0BAR S1BAR R0BAR R1BAR
+	D0_GATE IO_10K_IN  IO_LEVEL={IO_LEVEL}
U4 DFF(1) VCC2 VEE
+	S0BAR R0BAR GATE0
+	D0BUF Q0 Q0BAR
+	D_10131 IO_10K_OUT  IO_LEVEL={IO_LEVEL} MNTYMXDLY={MNTYMXDLY}
U5 DFF(1) VCC2 VEE
+	S1BAR R1BAR GATE1
+	D1BUF Q1 Q1BAR
+	D_10131 IO_10K_OUT  IO_LEVEL={IO_LEVEL} MNTYMXDLY={MNTYMXDLY}
.ends

.model D_10131 ueff (
+	tppcqlhmn={table(temp, -30, 1.70ns,  25, 1.80ns,  85, 1.80ns)}
+	tppcqlhty=2.80ns
+	tppcqlhmx={table(temp, -30, 4.40ns,  25, 4.30ns,  85, 4.80ns)}
+	tppcqhlmn={table(temp, -30, 1.70ns,  25, 1.80ns,  85, 1.80ns)}
+	tppcqhlty=2.80ns
+	tppcqhlmx={table(temp, -30, 4.40ns,  25, 4.30ns,  85, 4.80ns)}
+	tpclkqlhmn={table(temp, -30, 1.70ns,  25, 1.80ns,  85, 1.80ns)}
+	tpclkqlhty=3.00ns
+	tpclkqlhmx={table(temp, -30, 4.60ns,  25, 4.50ns,  85, 5.00ns)}
+	tpclkqhlmn={table(temp, -30, 1.70ns,  25, 1.80ns,  85, 1.80ns)}
+	tpclkqhlty=3.00ns
+	tpclkqhlmx={table(temp, -30, 4.60ns,  25, 4.50ns,  85, 5.00ns)}
+	tsudclkmn=2.50ns
+	thdclkmn=1.50ns
+	)

*$
*-------------------------------------------------------------------------
* 10132 Dual 2-Input Multiplexer With Clocked D-Type Latches and Common
*	  Reset
*
* Philips ECL Databook June 1990
* jjr	07/26/91	Created

.subckt 10132 CE0BAR CE1BAR R S CP D0 D1 D2 D3 Q0 Q0BAR Q1 Q1BAR
+	optional: VEE =$G_ECL_10K_VEE  VCC1=$G_ECL_10K_VCC1
+                 VCC2=$G_ECL_10K_VCC2
+	params: MNTYMXDLY=0 IO_LEVEL=0

* Note: In accordance with the databook, all unused inputs must be tied
*	low, pulldown resistors are not incorporated in this model.
*
*	Setup and Hold times for S to CP have not been included in the
*	model.

U1 BUFA(5) VCC1 VEE
+	CE0BAR CE1BAR CP    R    S
+	CE0B   CE1B   CPBUF RBUF SB
+	D0_GATE IO_10K_IN  IO_LEVEL={IO_LEVEL}
U2 BUF	VCC1 VEE
+	SB  SBUF
+	D_10132_1 IO_10K_IN  IO_LEVEL={IO_LEVEL} MNTYMXDLY={MNTYMXDLY}
U3 INV	VCC1 VEE
+	SB  SBAR
+	D_10132_1 IO_10K_IN  IO_LEVEL={IO_LEVEL} MNTYMXDLY={MNTYMXDLY}
U4 ORA(2,4) VCC1 VEE
+	D0 SBUF  D1 SBAR  D2 SBUF  D3 SBAR
+	D0A      D0B      D1A      D1B
+	D0_GATE IO_10K_IN  IO_LEVEL={IO_LEVEL}
U5 ANDA(2,2) VCC1 VEE
+	D0A D0B  D1A D1B
+	D_0	 D_1
+	D0_GATE IO_10K_IN
U6 NORA(2,2) VCC1 VEE
+	CE0B CPBUF  CE1B CPBUF
+	GATE0         GATE1
+	D0_GATE IO_10K_IN
U7 AOI(2,2) VCC1 VEE
+	RBUF CPBUF RBUF CE0B  R0BAR
+	D0_GATE IO_10K_IN
U8 AOI(2,2) VCC1 VEE
+	RBUF CPBUF RBUF CE1B  R1BAR
+	D0_GATE IO_10K_IN
U9 DLTCH(1) VCC2 VEE
+	$D_HI R0BAR GATE0
+	D_0 Q0 Q0BAR
+	D_10132_2 IO_10K_OUT  IO_LEVEL={IO_LEVEL} MNTYMXDLY={MNTYMXDLY}
U10 DLTCH(1) VCC2 VEE
+	$D_HI R1BAR GATE1
+	D_1 Q1 Q1BAR
+	D_10132_2 IO_10K_OUT  IO_LEVEL={IO_LEVEL} MNTYMXDLY={MNTYMXDLY}
.ends

.model D_10132_1 ugate (
+	tplhmn=0.00ns
+       tplhmx={table(temp, -30, 1.20ns,  25, 1.30ns,  85, 1.30ns)}
+	tphlmn=0.00ns
+	tphlmx={table(temp, -30, 1.20ns,  25, 1.30ns,  85, 1.30ns)}
+	)

.model D_10132_2 ugff (
+	tppcqlhmn=1.00ns
+	tppcqlhmx={table(temp, -30, 4.00ns,  25, 3.80ns,  85, 4.20ns)}
+	tppcqhlmn=1.00ns
+	tppcqhlmx={table(temp, -30, 4.00ns,  25, 3.80ns,  85, 4.20ns)}
+	tpgqlhmn=1.00ns
+	tpgqlhmx={table(temp, -30, 6.00ns,  25, 5.70ns,  85, 6.30ns)}
+	tpgqhlmn=1.00ns
+	tpgqhlmx={table(temp, -30, 6.00ns,  25, 5.70ns,  85, 6.30ns)}
+	tpdqlhmn=1.00ns    tpdqlhty=3.00ns
+	tpdqlhmx={table(temp, -30, 3.60ns,  25, 3.30ns,  85, 3.70ns)}
+	tpdqhlmn=1.00ns    tpdqhlty=3.00ns
+	tpdqhlmx={table(temp, -30, 3.60ns,  25, 3.30ns,  85, 3.70ns)}
+	tsudgmn=2.50ns
+	thdgmn=1.50ns
+	)

*$
*-------------------------------------------------------------------------
* 10133 Quad Latch With D-Type Inputs and Enable Outputs
*
* Philips ECL Databook June 1990
* jjr	07/29/91	Created

.subckt 10133 CE0BAR CE1BAR OE0BAR OE1BAR CPBAR D0 D1 D2 D3
+	Q0BAR Q1BAR Q2BAR Q3BAR
+	optional: VEE =$G_ECL_10K_VEE  VCC1=$G_ECL_10K_VCC1
+                 VCC2=$G_ECL_10K_VCC2
+	params: MNTYMXDLY=0 IO_LEVEL=0

* Note: In accordance with the databook, all unused inputs must be tied
*	low, pulldown resistors are not incorporated in this model.

U1 BUFA(3) VCC1 VEE
+	CPBAR   OE0BAR OE1BAR
+	CPBAR_B	OE0B   OE1B
+	D0_GATE IO_10K_IN  IO_LEVEL={IO_LEVEL}
U2 ORA(2,2) VCC1 VEE
+	CE0BAR CPBAR_B  CE1BAR CPBAR_B
+	GATE0           GATE1
+	D0_GATE IO_10K_IN  IO_LEVEL={IO_LEVEL}
U3 DLTCH(1) VCC1 VEE
+	$D_HI $D_HI GATE0
+	D0  $D_NC Q0B
+	D_10133_1 IO_10K_IN  IO_LEVEL={IO_LEVEL} MNTYMXDLY={MNTYMXDLY}
U4 DLTCH(1) VCC1 VEE
+	$D_HI $D_HI GATE0
+	D1  $D_NC Q1B
+	D_10133_1 IO_10K_IN  IO_LEVEL={IO_LEVEL} MNTYMXDLY={MNTYMXDLY}
U5 DLTCH(1) VCC1 VEE
+	$D_HI $D_HI GATE1
+	D2  $D_NC Q2B
+	D_10133_1 IO_10K_IN  IO_LEVEL={IO_LEVEL} MNTYMXDLY={MNTYMXDLY}
U6 DLTCH(1) VCC1 VEE
+	$D_HI $D_HI GATE1
+	D3  $D_NC Q3B
+	D_10133_1 IO_10K_IN  IO_LEVEL={IO_LEVEL} MNTYMXDLY={MNTYMXDLY}
U7 NORA(2,4) VCC2 VEE
+	Q0B OE0B  Q1B OE0B  Q2B OE1B  Q3B OE1B
+	Q0BAR     Q1BAR     Q2BAR     Q3BAR
+	D_10133_2 IO_10K_OUT  IO_LEVEL={IO_LEVEL} MNTYMXDLY={MNTYMXDLY}
.ends

.model D_10133_1 ugff (
+	tpgqlhmn={table(temp, -30, 0.00ns,  25, 0.00ns,  85, 0.20ns)}
+	tpgqlhty=2.00ns	
+	tpgqlhmx={table(temp, -30, 2.20ns,  25, 2.30ns,  85, 2.60ns)}
+	tpgqhlmn={table(temp, -30, 0.00ns,  25, 0.00ns,  85, 0.20ns)}
+	tpgqhlty=2.00ns	
+	tpgqhlmx={table(temp, -30, 2.20ns,  25, 2.30ns,  85, 2.60ns)}
+	tpdqlhmn={table(temp, -30, 0.00ns,  25, 0.00ns,  85, 0.10ns)}
+	tpdqlhty=2.00ns
+	tpdqlhmx={table(temp, -30, 2.40ns,  25, 2.30ns,  85, 2.50ns)}
+	tpdqhlmn={table(temp, -30, 0.00ns,  25, 0.00ns,  85, 0.10ns)}
+	tpdqhlty=2.00ns
+	tpdqhlmx={table(temp, -30, 2.40ns,  25, 2.30ns,  85, 2.50ns)}
+	tsudgmn=2.50ns
+	thdgmn=1.50ns
+	)

.model D_10133_2 ugate (
+	tplhmn=1.00ns      tplhty=2.00ns
+	tplhmx={table(temp, -30, 3.20ns,  25, 3.10ns,  85, 3.40ns)}
+	tphlmn=1.00ns      tphlty=2.00ns
+	tphlmx={table(temp, -30, 3.20ns,  25, 3.10ns,  85, 3.40ns)}
+	)

*$
*-------------------------------------------------------------------------
* 10134 Dual 2-Input Multiplexer With Clocked D-Type Latches
*
* Philips ECL Databook June 1990
* jjr	07/26/91	Created

.subckt 10134 CE0BAR CE1BAR S0 S1 CPBAR D0 D1 D2 D3 Q0 Q0BAR Q1 Q1BAR
+	optional: VEE =$G_ECL_10K_VEE  VCC1=$G_ECL_10K_VCC1
+                 VCC2=$G_ECL_10K_VCC2
+	params: MNTYMXDLY=0 IO_LEVEL=0

* Note: In accordance with the databook, all unused inputs must be tied
*	low, pulldown resistors are not incorporated in this model.
*
*	The D-latches are positive-edge latched, despite the databook's
*	labelling of the clock as CPBAR.
*
*	Setup and Hold times for Sn to CP have not been included in the
*	model.

U1 BUFA(3) VCC1 VEE
+	CPBAR   S0  S1
+	CPBAR_B	S0B S1B
+	D0_GATE IO_10K_IN  IO_LEVEL={IO_LEVEL}
U2 BUFA(2) VCC1 VEE
+	S0B   S1B
+	S0BUF S1BUF
+	D_10134_1 IO_10K_IN  IO_LEVEL={IO_LEVEL} MNTYMXDLY={MNTYMXDLY}
U3 INVA(2) VCC1 VEE
+	S0B   S1B
+	S0BAR S1BAR
+	D_10134_1 IO_10K_IN  IO_LEVEL={IO_LEVEL} MNTYMXDLY={MNTYMXDLY}
U4 ORA(2,4) VCC1 VEE
+	D0 S0BUF  D1 S0BAR  D2 S1BUF  D3 S1BAR
+	D0A       D0B       D1A       D1B
+	D0_GATE IO_10K_IN  IO_LEVEL={IO_LEVEL}
U5 ANDA(2,2) VCC1 VEE
+	D0A D0B  D1A D1B
+	D_0	 D_1
+	D0_GATE IO_10K_IN
U6 NORA(2,2) VCC1 VEE
+	CE0BAR CPBAR_B  CE1BAR CPBAR_B
+	GATE0         GATE1
+	D0_GATE IO_10K_IN  IO_LEVEL={IO_LEVEL}
U7 DLTCH(1) VCC2 VEE
+	$D_HI $D_HI GATE0
+	D_0 Q0 Q0BAR
+	D_10134_2 IO_10K_OUT  IO_LEVEL={IO_LEVEL} MNTYMXDLY={MNTYMXDLY}
U8 DLTCH(1) VCC2 VEE
+	$D_HI $D_HI GATE1
+	D_1 Q1 Q1BAR
+	D_10134_2 IO_10K_OUT  IO_LEVEL={IO_LEVEL} MNTYMXDLY={MNTYMXDLY}
.ends

.model D_10134_1 ugate (
+	tplhmn=0.00ns
+       tplhmx={table(temp, -30, 1.30ns,  25, 1.30ns,  85, 1.40ns)}
+	tphlmn=0.00ns
+	tphlmx={table(temp, -30, 1.30ns,  25, 1.30ns,  85, 1.40ns)}
+	)

.model D_10134_2 ugff (
+	tpgqlhmn=1.00ns
+	tpgqlhmx={table(temp, -30, 6.00ns,  25, 5.70ns,  85, 6.30ns)}
+	tpgqhlmn=1.00ns
+	tpgqhlmx={table(temp, -30, 6.00ns,  25, 5.70ns,  85, 6.30ns)}
+	tpdqlhmn=1.00ns    tpdqlhty=3.00ns
+	tpdqlhmx={table(temp, -30, 3.50ns,  25, 3.30ns,  85, 3.60ns)}
+	tpdqhlmn=1.00ns    tpdqhlty=3.00ns
+	tpdqhlmx={table(temp, -30, 3.50ns,  25, 3.30ns,  85, 3.60ns)}
+	tsudgmn=2.50ns
+	thdgmn=1.50ns
+	)

*$
*-------------------------------------------------------------------------
* 10135 Dual J-K Master-Slave Flip-Flop
*
* Philips ECL Databook June 1990
* jjr	07/25/91	Created

.subckt 10135 R0 S0 R1 S1 CP J0BAR K0BAR J1BAR K1BAR Q0 Q0BAR Q1 Q1BAR
+	optional: VEE =$G_ECL_10K_VEE  VCC1=$G_ECL_10K_VCC1
+                 VCC2=$G_ECL_10K_VCC2
+	params: MNTYMXDLY=0 IO_LEVEL=0

* Note: In accordance with the databook, all unused inputs must be tied
*	low, pulldown resistors are not incorporated in this model.
*
*	Despite the Master-Slave description, this device behaves as a
*	normal positive-edge-triggered J-K flip-flop.
*
*	The databook also gives a different value for 'typical' setup
*	and hold times, which are not included in this model.

U1 INVA(9) VCC1 VEE
+	CP    R0    S0    R1    S1    J0BAR K0BAR J1BAR K1BAR
+	CPBAR R0BAR S0BAR R1BAR S1BAR J0    K0    J1    K1
+	D0_GATE IO_10K_IN  IO_LEVEL={IO_LEVEL}
U2 JKFF(1) VCC2 VEE
+	S0BAR R0BAR CPBAR
+	J0 K0  Q0 Q0BAR
+	D_10135 IO_10K_OUT  IO_LEVEL={IO_LEVEL} MNTYMXDLY={MNTYMXDLY}
U3 JKFF(1) VCC2 VEE
+	S1BAR R1BAR CPBAR