* Library of Japanese Power Bipolar Transistor Models

* Copyright 1994-1996 by MicroSim Corporation
* Neither this library nor any part may be copied without the express
* written consent of MicroSim Corporation

* $Revision:   1.5  $
* $Author:   RPEREZ  $
* $Date:   11 Oct 1996 15:00:18  $
* 
* ---------------------------------------------------------------------------
* The parameters in this model library were derived from the data sheets for
* each part.  Each part was characterized using the Parts option.
* ---------------------------------------------------------------------------
*$
.model Q2sa1009 PNP(Is=21.05u Xti=3 Eg=1.11 Vaf=10.8 Bf=43.5 Ise=0 Ne=1.5 Ikf=0
+               Nk=.5 Xtb=1.5 Var=100 Br=14.36 Isc=303u Nc=2.5 Ikr=5.354
+               Rc=1.097 Cjc=2p Mjc=.3333 Vjc=.75 Fc=.5 Cje=5p Mje=.3333
+               Vje=.75 Tr=2.329u Tf=1n Itf=1 Xtf=0 Vtf=10)
*$
* created using Parts release 7.1p on 06/28/96 at 11:46
* Missing output admittance
.MODEL Q2SA1020 PNP
+ IS=22.874E-15
+ BF=157.34
+ VAF=100
+ IKF=6.1540
+ ISE=211.08E-15
+ NE=1.4906
+ BR=500
+ VAR=100
+ IKR=20
+ ISC=37.417E-15
+ NC=1.1098
+ NK=.83537
+ RB=1
+ RC=.19037
+ CJE=64.281E-12
+ MJE=.33333
+ CJC=97.165E-12
+ MJC=.33333
+ TF=395.80E-12
+ XTF=10
+ VTF=10
+ ITF=1
+ TR=168.00E-9
*$
* created using Parts release 7.1p on 07/18/96 at 13:37
* missing storage time & output admittance
.MODEL Q2SA1145 PNP
+ IS=101.67E-15
+ BF=128.41
+ VAF=75
+ IKF=.11054
+ ISE=803.71E-15
+ NE=1.8896
+ BR=2.4425
+ VAR=100
+ IKR=19.980
+ ISC=33.266E-9
+ NC=2.8528
+ NK=.5
+ RC=11.083
+ CJE=4.0176E-12
+ MJE=.33333
+ CJC=6.2870E-12
+ VJC=.35
+ MJC=.26272
+ TF=319.63E-12
+ XTF=76
+ VTF=482.73
+ ITF=.12
+ TR=10.000E-9
*$
.model Q2sa1156 PNP(Is=3.508u Xti=3 Eg=1.11 Vaf=75.88 Bf=79.71 Ise=3.508u
+               Ne=11.99 Ikf=2.054 Nk=.5 Xtb=1.5 Var=100 Br=1.28 Isc=95.55u
+               Nc=3.767 Ikr=56.66 Rc=2.617 Cjc=2p Mjc=.3333 Vjc=.75 Fc=.5
+               Cje=5p Mje=.3333 Vje=.75 Tr=11.88u Tf=1n Itf=1 Xtf=0 Vtf=10)
*$
* created using Parts release 7.1p on 06/28/96 at 16:19
.MODEL Q2SA1160 PNP
+ IS=147.77E-15
+ BF=432.67
+ VAF=100
+ IKF=2.2271
+ ISE=1.3240E-12
+ NE=1.7741
+ BR=94.626
+ VAR=100
+ IKR=1.1237
+ ISC=447.85E-15
+ NC=1.3771
+ NK=.54858
+ RC=62.719E-3
+ CJE=80.352E-12
+ MJE=.33333
+ CJC=121.46E-12
+ MJC=.33333
+ TF=241.68E-12
+ XTF=10
+ VTF=10
+ ITF=1
+ TR=23.608E-9
*$
.model Q2sa1201 PNP(Is=224.8f Xti=3 Eg=1.11 Vaf=100 Bf=162.4 Ise=248.4f
+               Ne=1.449 Ikf=3.202 Nk=.8791 Xtb=1.5 Var=100 Br=7.845 Isc=2.658n
+               Nc=2.005 Ikr=.6245 Rc=.1409 Cjc=2p Mjc=.3333 Vjc=.75 Fc=.5
+               Cje=5p Mje=.3333 Vje=.75 Tr=10n Tf=1.323n Itf=1 Xtf=0 Vtf=10)
*$
.model Q2sa1202 PNP(Is=286.9f Xti=3 Eg=1.11 Vaf=100 Bf=143.9 Ise=13.42p
+               Ne=1.972 Ikf=.6191 Nk=.5999 Xtb=1.5 Var=100 Br=5.133 Isc=50p
+               Nc=3.754 Ikr=33.37m Rc=.3137 Cjc=34.01p Mjc=.3333 Vjc=.75 Fc=.5
+               Cje=5p Mje=.3333 Vje=.75 Tr=10n Tf=1.268n Itf=1 Xtf=0 Vtf=10)
*$
.model Q2sa1213 PNP(Is=70.49f Xti=3 Eg=1.11 Vaf=100 Bf=207.8 Ise=325f Ne=1.943
+               Ikf=2.727 Nk=.5858 Xtb=1.5 Var=100 Br=30.64 Isc=1.074p Nc=1.575
+               Ikr=.1559 Rc=99.93m Cjc=97.16p Mjc=.3333 Vjc=.75 Fc=.5 Cje=5p
+               Mje=.3333 Vje=.75 Tr=109n Tf=1.321n Itf=1 Xtf=0 Vtf=10)
*$
.model Q2sa1216 PNP(Is=7.795p Xti=3 Eg=1.11 Vaf=100 Bf=90.76 Ise=79.57p
+               Ne=1.483 Ikf=11.97 Nk=.3815 Xtb=1.5 Var=100 Br=1 Isc=0 Nc=2
+               Ikr=0 Rc=0 Cjc=2p Mjc=.3333 Vjc=.75 Fc=.5 Cje=5p Mje=.3333
+               Vje=.75 Tr=1.39u Tf=6.323n Itf=2.833 Xtf=0 Vtf=10)
*$
* created using Parts release 7.1p on 07/18/96 at 13:55
* missing output admittance
.MODEL Q2SA1241 PNP
+ IS=32.394E-15
+ BF=174.89
+ VAF=100
+ IKF=1.9728
+ ISE=303.29E-15
+ NE=1.4972
+ BR=15.037
+ VAR=100
+ IKR=14.830
+ ISC=792.44E-15
+ NC=1.3232
+ NK=.51107
+ RB=1.5000
+ RC=.20069
+ CJE=64.281E-12
+ MJE=.33333
+ CJC=97.165E-12
+ MJC=.33333
+ TF=360.00E-12
+ XTF=10
+ VTF=10
+ ITF=1
+ TR=165.67E-9
*$
* created using Parts release 7.1p on 07/01/96 at 09:58
* missing storage time & output admittance
.MODEL Q2SA1242 PNP
+ IS=471.33E-15
+ BF=223.53
+ VAF=100
+ IKF=2.8490
+ ISE=2.8534E-12
+ NE=1.6442
+ BR=63.754
+ VAR=100
+ IKR=4.1451
+ ISC=58.148E-12
+ NC=1.4880
+ NK=.44194
+ RC=.10268
+ CJE=99.636E-12
+ MJE=.33333
+ CJC=150.61E-12
+ MJC=.33333
+ TF=234.37E-12
+ XTF=10
+ VTF=10
+ ITF=1
+ TR=10.000E-9
*$
* created using Parts release 7.1p on 07/01/96 at 10:16
* missing output admittance
.MODEL Q2SA1244 PNP
+ IS=247.82E-15
+ BF=150
+ VAF=100
+ IKF=6.6261
+ ISE=1.9999E-12
+ NE=1.4563
+ BR=499.50
+ VAR=100
+ IKR=20
+ ISC=6.8984E-9
+ NC=1.8057
+ NK=.62292
+ RB=.5
+ RC=74.846E-3
+ CJE=273.20E-12
+ MJE=.33333
+ CJC=412.95E-12
+ MJC=.33333
+ TF=451.38E-12
+ XTF=10
+ VTF=10
+ ITF=1
+ TR=140.16E-9
*$
.MODEL Q2SA1282 PNP IS=201.7E-12 BF=380.8 VAF=100 IKF=1.263 ISE=202.0E-12
+ NE=1.627 BR=.1044 VAR=100 IKR=1.255 ISC=1.127E-9 NC=2.051 NK=.5327
+ RC=1.302E-3 CJC=92.89E-12 VJC=1.500 MJC=.4119 TF=1.001E-9 VTF=10 ITF=1.039E3
+ TR=100.0E-9
*$
.MODEL Q2SA1283 PNP IS=1.513E-12 BF=300 VAF=46.70 IKF=.1168 ISE=15.19E-12
+ NE=1.590 BR=9.121 VAR=100 IKR=10.00E-3 ISC=1.513E-12 NK=.3476 CJC=63.88E-12
+ VJC=1.498 MJC=.548 TF=1.010E-9 XTF=1.000E3 VTF=99.90E3 ITF=1.000E3
+ TR=1.000E-12
*$
.MODEL Q2SA1284 PNP IS=785.4E-15 BF=99.38 VAF=394.7 IKF=4.967 ISE=31.92E-12
+ NE=2 VAR=100 IKR=50.00E-3 NK=1.649 CJC=31.82E-12 VJC=1.079 MJC=.4285
+ TF=1.200E-9 XTF=10 VTF=10 ITF=1 TR=1.000E-9
*$
.model Q2sa1296 PNP(Is=305.5f Xti=3 Eg=1.11 Vaf=100 Bf=226.1 Ise=3.016p
+               Ne=1.796 Ikf=3.893 Nk=.8682 Xtb=1.5 Var=100 Br=36.72 Isc=1.648p
+               Nc=1.462 Ikr=.3113 Rc=71.66m Cjc=97.16p Mjc=.3333 Vjc=.75 Fc=.5
+               Cje=5p Mje=.3333 Vje=.75 Tr=10n Tf=1.321n Itf=1 Xtf=0 Vtf=10)
*$
.model Q2sa1297 PNP(Is=305.5f Xti=3 Eg=1.11 Vaf=100 Bf=226.1 Ise=3.016p
+               Ne=1.796 Ikf=3.893 Nk=.8682 Xtb=1.5 Var=100 Br=36.72 Isc=1.648p
+               Nc=1.462 Ikr=.3113 Rc=71.66m Cjc=97.16p Mjc=.3333 Vjc=.75 Fc=.5
+               Cje=5p Mje=.3333 Vje=.75 Tr=10n Tf=1.321n Itf=1 Xtf=0 Vtf=10)
*$
.model Q2sa1298 PNP(Is=621.6f Xti=3 Eg=1.11 Vaf=100 Bf=209.5 Ise=3.534p
+               Ne=2.061 Ikf=3.42 Nk=1.23 Xtb=1.5 Var=100 Br=17.7 Isc=947.9f
+               Nc=1.538 Ikr=9.281 Rc=.4095 Cjc=31.58p Mjc=.3333 Vjc=.75 Fc=.5
+               Cje=5p Mje=.3333 Vje=.75 Tr=10n Tf=1.263n Itf=1 Xtf=0 Vtf=10)
*$
.model Q2sa1300 PNP(Is=331f Xti=3 Eg=1.11 Vaf=100 Bf=410.1 Ise=2.354p Ne=2.231
+               Ikf=2.152 Nk=.5312 Xtb=1.5 Var=100 Br=68.68 Isc=1.864p Nc=1.704
+               Ikr=.2816 Rc=52.22m Cjc=121.5p Mjc=.3333 Vjc=.75 Fc=.5 Cje=5p
+               Mje=.3333 Vje=.75 Tr=10n Tf=1.129n Itf=1 Xtf=0 Vtf=10)
*$
* created using Parts release 7.1p on 07/01/96 at 10:31
* missing storage time & output admittance
.MODEL Q2SA1302 PNP
+ IS=21.479E-12
+ BF=136.48
+ VAF=100
+ IKF=19.980
+ ISE=21.504E-12
+ NE=1.3784
+ BR=329.48
+ VAR=100
+ IKR=19.980
+ ISC=4.3670E-9
+ NC=1.4264
+ NK=.72845
+ RC=93.301E-3
+ CJE=755.31E-12
+ MJE=.33333
+ CJC=1.1417E-9
+ MJC=.33333
+ TF=1.2802E-9
+ XTF=10
+ VTF=10
+ ITF=1
+ TR=10.000E-9
*$
* created using Parts release 7.1p on 07/01/96 at 10:33
* missing storage time & output admittance
.MODEL Q2SA1304 PNP
+ IS=10.000E-15
+ BF=134.98
+ VAF=100
+ IKF=.70373
+ ISE=206.07E-15
+ NE=1.4074
+ BR=1.9998
+ VAR=100
+ IKR=19.007
+ ISC=224.58E-9
+ NC=2.9970
+ NK=.54868
+ RC=.41468
+ CJE=88.387E-12
+ MJE=.33333
+ CJC=133.60E-12
+ MJC=.33333
+ TF=10.257E-9
+ XTF=10
+ VTF=10
+ ITF=1
+ TR=10.000E-9
*$
.model Q2sa1314 PNP(Is=152.7f Xti=3 Eg=1.11 Vaf=100 Bf=442.5 Ise=317.2f
+               Ne=1.573 Ikf=1.777 Nk=.4922 Xtb=1.5 Var=100 Br=70.01 Isc=166.4f
+               Nc=1.403 Ikr=.4771 Rc=60.41m Cjc=121.5p Mjc=.3333 Vjc=.75 Fc=.5
+               Cje=5p Mje=.3333 Vje=.75 Tr=10n Tf=1.129n Itf=1 Xtf=0 Vtf=10)
*$
* created using Parts release 7.1p on 07/01/96 at 10:44
.MODEL Q2SA1315 PNP
+ IS=271.63E-15
+ BF=141.64
+ VAF=100
+ IKF=1.7453
+ ISE=2.5249E-12
+ NE=1.5760
+ BR=14.168
+ VAR=100
+ IKR=.14207
+ ISC=210.83E-12
+ NC=1.5915
+ NK=.52861
+ RB=.2
+ RC=.11922
+ CJE=72.317E-12
+ MJE=.33333
+ CJC=109.31E-12
+ MJC=.33333
+ TF=433.72E-12
+ XTF=10
+ VTF=10
+ ITF=1
+ TR=269.00E-9
*$
* created using Parts release 7.1p on 07/01/96 at 12:02
* missing storage time & output admittance
.MODEL Q2SA1321 PNP
+ IS=546.32E-15
+ BF=154.54
+ VAF=100
+ IKF=.25686
+ ISE=7.8899E-12
+ NE=1.9663
+ BR=.1001
+ VAR=100
+ IKR=10.000E-3
+ ISC=546.72E-15
+ NC=3
+ NK=1.2218
+ RC=23.152
+ CJE=4.8211E-12
+ MJE=.33333
+ CJC=9.0735E-12
+ MJC=.33333
+ TF=1.9539E-9
+ XTF=10
+ VTF=10
+ ITF=1
+ TR=10.000E-9
*$
* created using Parts release 7.1p on 07/01/96 at 13:20
* missing output admittance; used 2SA1329 for storage time
.MODEL Q2SA1327 PNP
+ IS=289.73E-15
+ BF=220.01
+ VAF=100
+ IKF=20
+ ISE=289.75E-15
+ NE=1.3484
+ BR=40.829
+ VAR=100
+ IKR=11.903
+ ISC=106.40E-12
+ NC=1.6066
+ NK=.66302
+ RC=36.278E-3
+ CJE=642.81E-12
+ MJE=.33333
+ CJC=971.65E-12
+ MJC=.33333
+ TF=587.82E-12
+ XTF=10
+ VTF=10
+ ITF=1
+ TR=60.099E-9
*$
* created using Parts release 7.1p on 07/01/96 at 13:32
* missing output admittance; used 2SA1680 for storage time
.MODEL Q2SA1356 PNP
+ IS=33.096E-15
+ BF=149.20
+ VAF=100
+ IKF=.82361
+ ISE=33.096E-15
+ NE=2
+ BR=12.167
+ VAR=100
+ IKR=76.401E-3
+ ISC=325.08E-15
+ NC=2.9360
+ NK=.61048
+ RC=.2487
+ CJE=32.141E-12
+ MJE=.33333
+ CJC=48.582E-12
+ MJC=.33333
+ TF=231.31E-12
+ XTF=10
+ VTF=10
+ ITF=1
+ TR=129.00E-9
*$
* created using Parts release 7.1p on 07/01/96 at 13:45
* missing storage time & output admittance
.MODEL Q2SA1357 PNP
+ IS=89.641E-15
+ BF=225.69
+ VAF=100
+ IKF=14.045
+ ISE=100.77E-15
+ NE=1.4217
+ BR=499.52
+ VAR=100
+ IKR=20
+ ISC=23.567E-12
+ NC=1.4956
+ NK=.8764
+ RC=.13188
+ CJE=99.636E-12
+ MJE=.33333
+ CJC=150.61E-12
+ MJC=.33333
+ TF=254.08E-12
+ XTF=10
+ VTF=10
+ ITF=1
+ TR=10.000E-9
*$
* created using Parts release 7.1p on 07/18/96 at 14:00
* missing output admittance; used 2SA1761 for storage time
.MODEL Q2SA1358 PNP
+ IS=1.3030E-12
+ BF=123.92
+ VAF=100
+ IKF=2.3652
+ ISE=10.270E-12
+ NE=1.6751
+ BR=2.9724
+ VAR=100
+ IKR=19.855
+ ISC=389.46E-9
+ NC=2.9970
+ NK=.55365
+ RC=.845
+ CJE=48.211E-12
+ MJE=.33333
+ CJC=72.874E-12
+ MJC=.33333
+ TF=1.0985E-9
+ XTF=10
+ VTF=10
+ ITF=1
+ TR=10.000E-9
*$
* created using Parts release 7.1p on 07/01/96 at 14:18
* missing output admittance; used 2SA1020 for storage time
.MODEL Q2SA1359 PNP
+ IS=286.85E-15
+ BF=201.56
+ VAF=100
+ IKF=2.9905
+ ISE=2.6699E-12
+ NE=1.6590
+ BR=10.867
+ VAR=100
+ IKR=.33036
+ ISC=440.02E-15
+ NC=1.4816
+ NK=.72289
+ RC=.16593
+ CJE=56.246E-12
+ MJE=.33333
+ CJC=85.019E-12
+ MJC=.33333
+ TF=351.39E-12
+ XTF=10
+ VTF=10
+ ITF=1
+ TR=213.19E-9
*$
* created using Parts release 7.1p on 07/01/96 at 15:06
* missing storage time & output admittance
.MODEL Q2SA1360 PNP
+ IS=116.73E-15
+ BF=147.48
+ VAF=100
+ IKF=78.684E-3
+ ISE=297.72E-15
+ NE=1.5511
+ BR=.77363
+ VAR=100
+ IKR=1.0217
+ ISC=26.920E-9
+ NC=2.9970
+ NK=.49889
+ RC=4.5038
+ CJE=4.0176E-12
+ MJE=.33333
+ CJC=6.2870E-12
+ VJC=.35
+ MJC=.26272
+ TF=344.39E-12
+ XTF=84.382
+ VTF=7.0050
+ ITF=.11443
+ TR=10.000E-9
*$
.MODEL Q2SA1363 PNP IS=5.387E-15 BF=295.4 VAF=200 IKF=10 ISE=9.150E-15 NE=1.996
+ VAR=100 IKR=10.00E-3 NK=1.466 CJC=110.8E-12 VJC=.5055 MJC=.3332 TF=1.082E-9
+ VTF=10 ITF=2.600E3 TR=10.00E-9
*$
.MODEL Q2SA1364 PNP IS=698.1E-15 BF=193.1 VAF=100 IKF=11.95 ISE=707.9E-15
+ NE=1.998 VAR=100 IKR=10.00E-3 NK=1.601 CJC=59.11E-12 VJC=1.500 MJC=.5288
+ TF=1.333E-9 XTF=9.842E-3 VTF=10 ITF=99.90E3 TR=10.00E-9
*$
.MODEL Q2SA1365 PNP IS=4.825E-12 BF=330 VAF=100 IKF=.564 ISE=4.825E-12 NE=1.709
+ VAR=100 IKR=10.00E-3 NK=.4494 TF=1.000E-9 XTF=10 VTF=10 ITF=1 TR=10.00E-9
*$
.MODEL Q2SA1366 PNP IS=10.00E-15 BF=181.6 VAF=100 IKF=.2691 ISE=94.32E-15
+ NE=1.577 VAR=100 IKR=10.00E-3 NK=.2924 TF=1.000E-9 XTF=10 VTF=10 ITF=1
+ TR=10.00E-9
*$
.MODEL Q2SA1369 PNP IS=48.25E-12 BF=966.4 VAF=100 IKF=2 ISE=48.25E-12 NE=2
+ VAR=100 IKR=2 NK=.6287 CJC=37.00E-12 VJC=1.498 MJC=.1001 TF=886.9E-12 VTF=10
+ ITF=10.89E3 TR=10.00E-9
*$
* created using Parts release 7.1p on 07/01/96 at 15:26
* missing output admittance
.MODEL Q2SA1382 PNP
+ IS=54.621E-15
+ BF=341.94
+ VAF=100
+ IKF=2.2664
+ ISE=440.14E-15
+ NE=1.6887
+ BR=34.323
+ VAR=100
+ IKR=58.905E-3
+ ISC=5.0080E-12
+ NC=2.9900
+ NK=.52579
+ RB=1.5000
+ RC=.16273
+ CJE=80.352E-12
+ MJE=.33333
+ CJC=121.46E-12
+ MJC=.33333
+ TF=333.89E-12
+ XTF=10
+ VTF=10
+ ITF=1
+ TR=78.088E-9
*$
* created using Parts release 7.1p on 07/01/96 at 15:38
* missing output admittance
.MODEL Q2SA1387 PNP
+ IS=268.49E-15
+ BF=331.29
+ VAF=100
+ IKF=5.6868
+ ISE=2.1967E-12
+ NE=1.5732
+ BR=32.450
+ VAR=100
+ IKR=.99749
+ ISC=268.49E-15
+ NC=1.2565
+ NK=.52584
+ RB=1.5000
+ RC=31.114E-3
+ CJE=321.41E-12
+ MJE=.33333
+ CJC=485.82E-12
+ MJC=.33333
+ TF=342.48E-12
+ XTF=10
+ VTF=10
+ ITF=1
+ TR=73.194E-9
*$
* created using Parts release 7.1p on 07/01/96 at 15:54
* missing output admittance
.MODEL Q2SA1388 PNP
+ IS=222.68E-15
+ BF=156.44
+ VAF=100
+ IKF=20
+ ISE=222.68E-15
+ NE=1.4270
+ BR=72.293
+ VAR=100
+ IKR=.60051
+ ISC=64.326E-12
+ NC=1.5874
+ NK=.90036
+ RB=.25
+ RC=16.397E-3
+ CJE=321.41E-12
+ MJE=.33333
+ CJC=485.82E-12
+ MJC=.33333
+ TF=490.29E-12
+ XTF=10
+ VTF=10
+ ITF=1
+ TR=155.96E-9
*$
.model Q2sa1394 PNP(Is=422.9f Xti=3 Eg=1.11 Vaf=100 Bf=167.1 Ise=4.706p
+               Ne=1.451 Ikf=3.725 Nk=.5586 Xtb=1.5 Var=100 Br=7.641 Isc=26.51p
+               Nc=1.373 Ikr=6.232 Rc=87.96m Cjc=2p Mjc=.3333 Vjc=.75 Fc=.5
+               Cje=5p Mje=.3333 Vje=.75 Tr=412.3n Tf=1n Itf=1 Xtf=0 Vtf=10)
*$
.model Q2sa1395 PNP(Is=46.54p Xti=3 Eg=1.11 Vaf=100 Bf=91.29 Ise=46.78p
+               Ne=1.595 Ikf=10.16 Nk=1.277 Xtb=1.5 Var=100 Br=37.69 Isc=2.826n
+               Nc=1.403 Ikr=5.09 Rc=.35 Cjc=2p Mjc=.3333 Vjc=.75 Fc=.5 Cje=5p
+               Mje=.3333 Vje=.75 Tr=715.4n Tf=1n Itf=1 Xtf=0 Vtf=10)
*$
.model Q2sa1396 PNP(Is=1.608n Xti=3 Eg=1.11 Vaf=100 Bf=84.55 Ise=1.608n
+               Ne=1.489 Ikf=19.19 Nk=.8193 Xtb=1.5 Var=100 Br=6.312 Isc=2.119n
+               Nc=1.616 Ikr=7.493 Rc=61.85m Cjc=2p Mjc=.3333 Vjc=.75 Fc=.5
+               Cje=5p Mje=.3333 Vje=.75 Tr=846.7n Tf=1n Itf=1 Xtf=0 Vtf=10)
*$
.MODEL Q2SA1398 PNP IS=555.8E-12 BF=380 VAF=20 IKF=2 VAR=100 IKR=1 TF=1.059E-9
+ XTF=10 VTF=10 ITF=1 TR=10.00E-9
*$
.MODEL Q2SA1399 PNP IS=10.09E-12 BF=172.9 VAF=100 IKF=1.190 ISE=44.12E-12
+ NE=1.998 VAR=100 IKR=10.00E-3 NK=.5362 CJC=5.200E-12 MJC=.3333 TF=788.9E-12
+ XTF=10 VTF=10 ITF=1 TR=10.00E-9
*$
.MODEL Q2SA1409 PNP IS=2.327E-12 BF=1.099E3 VAF=150 IKF=48.57E-3 ISE=2.327E-12
+ NE=1.998 BR=3.404 VAR=100 IKR=10.01E-3 ISC=2.327E-12 NC=1.865 RC=1.668
+ CJC=10.94E-12 VJC=.35 MJC=.2935 TF=974.4E-12 XTF=26.53 VTF=.44 ITF=30.48
+ TR=350.7E-9
*$
.model q2sa1425 PNP(Is=10f Xti=3 Eg=1.11 Vaf=100 Bf=140.3 Ise=3.333p Ne=1.876
+               Ikf=5.869 Nk=1.631 Xtb=1.5 Var=100 Br=1.114 Isc=452.2f Nc=1.457
+               Ikr=5.486 Rc=.4473 Cjc=97.16p Mjc=.3333 Vjc=.75 Fc=.5 Cje=5p
+               Mje=.3333 Vje=.75 Tr=10n Tf=1.312n Itf=1 Xtf=0 Vtf=10)
*$
* created using Parts release 7.1p on 07/29/96 at 08:38
* No storage time, output admittance, E-B capacitance
.MODEL Q2SA1426 PNP
+ IS=10.000E-21
+ BF=174.55
+ VAF=100
+ IKF=1.2096
+ ISE=10.000E-21
+ NE=1.2144
+ BR=26.077
+ VAR=100
+ IKR=19.980
+ ISC=1.0476E-18
+ NC=1.2249
+ NK=.65044
+ RC=.24877
+ CJE=2.0000E-12
+ CJC=46.153E-12
+ MJC=.33333
+ TF=1.0875E-9
+ XTF=10
+ VTF=10
+ ITF=1
+ TR=10.000E-9
*$
* created using Parts release 7.1p on 09/09/96 at 15:20
* missing output admittance, E-B capacitance
.MODEL Q2SA1428 PNP
+ IS=70.489E-15
+ BF=175.60
+ VAF=100
+ IKF=1.7130
+ ISE=70.489E-15
+ NE=1.3615
+ BR=54.015
+ VAR=100
+ IKR=19.980
+ ISC=229.14E-12
+ NC=1.7095
+ NK=.49915
+ RC=.24574
+ CJE=2.0000E-12
+ CJC=97.165E-12
+ MJC=.33333
+ TF=352.92E-12
+ XTF=10
+ VTF=10
+ ITF=1
+ TR=83.000E-9
*$
* created using Parts release 7.1p on 09/09/96 at 15:32
* Missing output admittance, E-B capacitance
.MODEL Q2SA1429 PNP
+ IS=70.489E-15
+ BF=186.36
+ VAF=100
+ IKF=.52393
+ ISE=3.0125E-12
+ NE=1.5967
+ BR=24.199
+ VAR=100
+ IKR=19.980
+ ISC=15.697E-12
+ NC=1.4088
+ NK=.39533
+ RC=.12493
+ CJE=2.0000E-12
+ CJC=109.31E-12
+ MJC=.33333
+ TF=370.64E-12
+ XTF=10
+ VTF=10
+ ITF=1
+ TR=224.00E-9
*$
* created using Parts release 7.1p on 07/11/96 at 09:51
*Missing output admittance, E-B capacitance
.MODEL Q2SA1430 PNP
+ IS=10.000E-15
+ BF=404.39
+ VAF=100
+ IKF=2.4082
+ ISE=11.369E-15
+ NE=2
+ BR=499.50
+ VAR=100
+ IKR=65.638E-3
+ ISC=14.445E-9
+ NC=2.9970
+ NK=.54052
+ RC=52.523E-3
+ CJE=2.0000E-12
+ CJC=121.46E-12
+ MJC=.33333
+ TF=248.24E-12
+ XTF=10
+ VTF=10
+ ITF=1
+ TR=10.000E-9
*$
* created using Parts release 7.1p on 07/12/96 at 13:36
* missing storage time, output admittance, E-B capacitance
.MODEL Q2SA1431 PNP
+ IS=10.000E-15
+ BF=218.95
+ VAF=100
+ IKF=13.426
+ ISE=4.5468E-12
+ NE=1.9980
+ BR=499.50
+ VAR=100
+ IKR=19.980
+ ISC=4.8078E-12
+ NC=1.4825
+ NK=.81952
+ RC=.10971
+ CJE=2.0000E-12
+ CJC=150.61E-12
+ MJC=.33333
+ TF=256.58E-12
+ XTF=10
+ VTF=10
+ ITF=1
+ TR=10.000E-9
*$
.model Q2SA1441 PNP(Is=92.68E-18 Xti=3 Eg=1.11 Vaf=100 Bf=234.4 Ise=92.68E-18
+               Ne=1.289 Ikf=11.81 Nk=.6836 Xtb=1.5 Var=100 Br=79.39
+               Isc=119.9E-18 Nc=2.914 Ikr=42.6 Rc=30m Cjc=491.6p Mjc=.4221
+               Vjc=.4243 Fc=.5 Cje=5p Mje=.3333 Vje=.75 Tr=40.53n Tf=2.81n
+               Itf=40.19 Xtf=5.933 Vtf=10)
*$
.model Q2SA1442 PNP(Is=123.6E-18 Xti=3 Eg=1.11 Vaf=100 Bf=318.6 Ise=174.1E-18
+               Ne=1.242 Ikf=14.71 Nk=.8432 Xtb=1.5 Var=100 Br=19.71 Isc=11.46p
+               Nc=1.924 Ikr=526.1 Rc=49.01m Cjc=641.8p Mjc=.4157 Vjc=.537
+               Fc=.5 Cje=5p Mje=.3333 Vje=.75 Tr=126.4n Tf=1.974n Itf=3.309
+               Xtf=11.92 Vtf=10)
*$
.model Q2sa1443 PNP(Is=422.9f Xti=3 Eg=1.11 Vaf=100 Bf=258.3 Ise=50.73p Ne=2.34
+               Ikf=27.49 Nk=.8264 Xtb=1.5 Var=100 Br=22.51 Isc=542.9f Nc=2.028
+               Ikr=38.27 Rc=25.59m Cjc=875.5p Mjc=.4039 Vjc=.3905 Fc=.5 Cje=5p
+               Mje=.3333 Vje=.75 Tr=213.2n Tf=3.211n Itf=2.745 Xtf=0 Vtf=10)
*$
.model Q2sa1444 PNP(Is=383.1f Xti=3 Eg=1.11 Vaf=100 Bf=282 Ise=3.246p Ne=1.626
+               Ikf=12.92 Nk=.5804 Xtb=1.5 Var=100 Br=26.11 Isc=1.102p Nc=1.427
+               Ikr=5.631 Rc=19.78m Cjc=1.218n Mjc=.4555 Vjc=.5648 Fc=.5 Cje=5p
+               Mje=.3333 Vje=.75 Tr=99.19n Tf=2.699n Itf=102.8 Xtf=9.449
+               Vtf=10)
*$
* created using Parts release 7.1p on 09/25/96 at 13:47
* Missing E-B capacitance, output admittance
.MODEL Q2SA1451 PNP
+ IS=10.000E-15
+ BF=159.12
+ VAF=100
+ IKF=17.898
+ ISE=21.568E-15
+ NE=1.3605
+ BR=23.298
+ VAR=100
+ IKR=19.980
+ ISC=10.008E-15
+ NC=1.2775
+ NK=.65543
+ RB=.5
+ RC=23.051E-3
+ CJE=2.0000E-12
+ CJC=777.32E-12
+ MJC=.33333
+ TF=455.70E-12
+ XTF=10
+ VTF=10
+ ITF=1
+ TR=100.30E-9
*$
* created using Parts release 7.1p on 09/25/96 at 13:50
* Missing E-B capacitance, output admittance
.MODEL Q2SA1452 PNP
+ IS=422.93E-15
+ BF=181.75
+ VAF=100
+ IKF=20
+ ISE=424.93E-15
+ NE=1.2748
+ BR=14.181
+ VAR=100
+ IKR=19.980
+ ISC=423.03E-15
+ NC=2.9970
+ NK=.75536
+ RB=.5
+ RC=26.857E-3
+ CJE=2.0000E-12
+ CJC=971.65E-12
+ MJC=.33333
+ TF=639.36E-12
+ XTF=10
+ VTF=10
+ ITF=1
+ TR=160.54E-9
*$
.model Q2SA1486 PNP(Is=21.05u Xti=3 Eg=1.11 Vaf=100 Bf=56.17 Ise=10p Ne=2
+               Ikf=2.321 Nk=1.22 Xtb=1.5 Var=100 Br=4.345 Isc=21.05u Nc=2
+               Ikr=125.6 Rc=.8106 Cjc=162.7p Mjc=.5367 Vjc=.7989 Fc=.5 Cje=5p
+               Mje=.3333 Vje=.75 Tr=3.415u Tf=7.901n Itf=11.92 Xtf=0 Vtf=1K)
*$
* created using Parts release 7.1p on 09/25/96 at 14:11
* missing storage time, output admittance, and E-B capacitance
.MODEL Q2SA1516 PNP
+ IS=10.000E-15
+ BF=109.19
+ VAF=300
+ IKF=19.980
+ ISE=10.000E-15
+ NE=1.3084
+ BR=55.256
+ VAR=100
+ IKR=19.980
+ ISC=844.64E-12
+ NC=1.8467
+ NK=.55464
+ RB=.3
+ RC=.11345
+ CJE=2.0000E-12
+ CJC=1.1417E-9
+ MJC=.33333
+ TF=1.2726E-9
+ XTF=10
+ VTF=10
+ ITF=1
+ TR=10.000E-9
*$
.model Q2sa1533 PNP(Is=292.3f Xti=3 Eg=1.11 Vaf=100 Bf=148.9 Ise=292.6f
+               Ne=1.642 Ikf=6.227 Nk=1.196 Xtb=1.5 Var=100 Br=9.978 Isc=810.7f
+               Nc=2.659 Ikr=4.233 Rc=1.373 Cjc=43.99p Mjc=.5418 Vjc=1.319
+               Fc=.5 Cje=5p Mje=.3333 Vje=.75 Tr=10n Tf=1n Itf=1 Xtf=0 Vtf=10)
*$
.model Q2sa1534 PNP(Is=487.2f Xti=3 Eg=1.11 Vaf=100 Bf=216.8 Ise=4.134p
+               Ne=1.836 Ikf=1.065 Nk=.5122 Xtb=1.5 Var=100 Br=5.231 Isc=879.4f
+               Nc=1.47 Ikr=25.59 Rc=.3161 Cjc=71.91p Mjc=.3837 Vjc=.3906 Fc=.5
+               Cje=5p Mje=.3333 Vje=.75 Tr=10n Tf=1.28n Itf=1 Xtf=0 Vtf=10)
*$
.model Q2sa1546 PNP(Is=45.75f Xti=3 Eg=1.11 Vaf=100 Bf=154.3 Ise=154.8f
+               Ne=1.541 Ikf=.5119 Nk=1.823 Xtb=1.5 Var=100 Br=1 Isc=801.9p
+               Nc=1.845 Ikr=6.939 Rc=3.313 Cjc=13.1p Mjc=.31 Vjc=.3905 Fc=.5
+               Cje=5p Mje=.3333 Vje=.75 Tr=10n Tf=564.2p Itf=4.802 Xtf=340.2u
+               Vtf=1)
*$
* created using Parts release 7.1p on 07/29/96 at 10:02
* missing storage time, output admittance, and E-B capacitance
.MODEL Q2SA1553 PNP
+ IS=10.000E-15
+ BF=121.74
+ VAF=200
+ IKF=20
+ ISE=10.001E-15
+ NE=1.3308
+ BR=499.50
+ VAR=100
+ IKR=20
+ ISC=75.263E-9
+ NC=2.7896
+ NK=.79028
+ RC=.19314
+ CJE=2.0000E-12
+ CJC=1.1417E-9
+ MJC=.33333
+ TF=1.2403E-9
+ XTF=10
+ VTF=10
+ ITF=1
+ TR=10.000E-9
*$
.model Q2SA1680 PNP(Is=1.554p Xti=3 Eg=1.11 Vaf=100 Bf=204.6 Ise=1.554p
+               Ne=1.723 Ikf=1.554 Nk=.574 Xtb=1.5 Var=100 Br=11.79 Isc=4.802p
+               Nc=1.277 Ikr=34.65 Rc=.2431 Cjc=55.87p Mjc=.3333 Vjc=.75 Fc=.5
+               Cje=5p Mje=.3333 Vje=.75 Tr=10n Tf=1.583n Itf=1 Xtf=0 Vtf=10)
*$
.model Q2SA1681 PNP(Is=224.8f Xti=3 Eg=1.11 Vaf=100 Bf=200.2 Ise=1.849p
+               Ne=2.238 Ikf=2.679 Nk=.7492 Xtb=1.5 Var=100 Br=8.668 Isc=10.89p
+               Nc=1.726 Ikr=1.953 Rc=.2362 Cjc=55.87p Mjc=.3333 Vjc=.75 Fc=.5
+               Cje=5p Mje=.3333 Vje=.75 Tr=10n Tf=1.578n Itf=1 Xtf=0 Vtf=10)
*$
.model Q2sa1755 PNP(Is=146.2f Xti=3 Eg=1.11 Vaf=100 Bf=82.92 Ise=146.2f Ne=1.27
+               Ikf=5.997 Nk=1.627 Xtb=1.5 Var=100 Br=1 Isc=0 Nc=2 Ikr=0 Rc=0
+               Cjc=57.24p Mjc=.4029 Vjc=.3905 Fc=.5 Cje=5p Mje=.3333 Vje=.75
+               Tr=514.4n Tf=1n Itf=1 Xtf=0 Vtf=10)
*$
.model Q2sa1762 PNP(Is=292.3f Xti=3 Eg=1.11 Vaf=100 Bf=148.9 Ise=292.6f
+               Ne=1.642 Ikf=6.227 Nk=1.196 Xtb=1.5 Var=100 Br=9.978 Isc=810.7f
+               Nc=2.659 Ikr=4.233 Rc=1.373 Cjc=43.99p Mjc=.5418 Vjc=1.319
+               Fc=.5 Cje=5p Mje=.3333 Vje=.75 Tr=10n Tf=1n Itf=1 Xtf=0 Vtf=10)
*$
* created using Parts release 7.1p on 07/29/96 at 10:30
.MODEL Q2SA1794 PNP
+ IS=211.47E-15
+ BF=156.47
+ VAF=100
+ IKF=20
+ ISE=211.47E-15
+ NE=1.5180
+ BR=20.387
+ VAR=100
+ IKR=19.980
+ ISC=34.115E-9
+ NC=3
+ NK=.95753
+ RC=39.694E-3
+ CJE=2.0000E-12
+ CJC=485.82E-12
+ MJC=.33333
+ TF=2.0000E-9
+ XTF=10
+ VTF=10
+ ITF=8
+ TR=100.00E-9
*$
* created using Parts release 7.1p on 07/26/96 at 11:28
.MODEL Q2SA1803 PNP
+ IS=1.0000E-6
+ BF=417.19
+ VAF=100
+ IKF=23.432E-3
+ ISE=1.0000E-6
+ NE=2
+ BR=500
+ VAR=100
+ IKR=19.980
+ ISC=22.100E-6
+ NC=2.0645
+ NK=.28784
+ RC=.26113
+ CJE=2.0000E-12
+ CJC=704.44E-12
+ MJC=.33333
+ TF=5.0000E-9
+ XTF=100.00E3
+ VTF=.88911
+ ITF=100.00E3
+ TR=10.000E-9
*$
* created using Parts release 7.1p on 07/29/96 at 10:52
.MODEL Q2SA1804 PNP
+ IS=10.000E-15
+ BF=107.13
+ VAF=100
+ IKF=15.860
+ ISE=119.08E-15
+ NE=1.4537
+ BR=28.706
+ VAR=100
+ IKR=.11754
+ ISC=725.16E-12
+ NC=1.9464
+ NK=.68076
+ RC=.11442
+ CJE=2.0000E-12
+ CJC=1.0202E-9
+ MJC=.33333
+ TF=5.5000E-9
+ XTF=21.689E3
+ VTF=.38993
+ ITF=80.158
+ TR=10.000E-9
*$
* created using Parts release 7.1p on 07/29/96 at 09:42
.MODEL Q2SA1805 PNP
+ IS=100.00E-9
+ BF=319.83
+ VAF=100
+ IKF=5.4850E-3
+ ISE=100.00E-9
+ NE=1.7755
+ BR=500
+ VAR=100
+ IKR=19.980
+ ISC=866.08E-9
+ NC=1.4463
+ NK=.20801
+ RC=93.212E-3
+ CJE=2.0000E-12
+ CJC=1.1660E-9
+ MJC=.33333
+ TF=5.0000E-9
+ XTF=.44706
+ VTF=13.430
+ ITF=9.0575
+ TR=10.000E-9
+ XTB=40
*$
* created using Parts release 7.1p on 07/12/96 at 12:03
.MODEL Q2SA1891 PNP
+ IS=70.489E-15
+ BF=197.55
+ VAF=100
+ IKF=2.7895
+ ISE=70.527E-15
+ NE=2
+ BR=18.450
+ VAR=100
+ IKR=20
+ ISC=70.489E-15
+ NC=3
+ NK=.75342
+ RC=.25995
+ CJE=2.0000E-12
+ CJC=55.870E-12
+ MJC=.33333
+ TF=1.3000E-9
+ XTF=10
+ VTF=10
+ ITF=1
+ TR=38.100E-9
*$
.model Q2sa683  PNP(Is=487.2f Xti=3 Eg=1.11 Vaf=100 Bf=216 Ise=4.511p Ne=1.864
+               Ikf=1.14 Nk=.524 Xtb=1.5 Var=100 Br=3.904 Isc=487.2f Nc=1.595
+               Ikr=16.75 Rc=.3114 Cjc=71.91p Mjc=.3836 Vjc=.3905 Fc=.5 Cje=5p
+               Mje=.3333 Vje=.75 Tr=10n Tf=1.318n Itf=1 Xtf=0 Vtf=10)
*$
.model Q2sa684  PNP(Is=487.2f Xti=3 Eg=1.11 Vaf=100 Bf=216 Ise=4.511p Ne=1.864
+               Ikf=1.14 Nk=.524 Xtb=1.5 Var=100 Br=3.904 Isc=487.2f Nc=1.595
+               Ikr=16.75 Rc=.3114 Cjc=71.91p Mjc=.3836 Vjc=.3905 Fc=.5 Cje=5p
+               Mje=.3333 Vje=.75 Tr=10n Tf=1.318n Itf=1 Xtf=0 Vtf=10)
*$
.model Q2sa879  PNP(Is=336.7f Xti=3 Eg=1.11 Vaf=100 Bf=129.4 Ise=337f Ne=1.48
+               Ikf=68.75m Nk=.1411 Xtb=1.5 Var=100 Br=1.108 Isc=37.62p
+               Nc=1.203 Ikr=5.805 Rc=1.961 Cjc=12.01p Mjc=.2648 Vjc=.3905
+               Fc=.5 Cje=5p Mje=.3333 Vje=.75 Tr=10n Tf=1n Itf=1 Xtf=0 Vtf=10)
*$
* created using Parts release 7.1p on 06/28/96 at 10:42
* missing storage time & output admittance
.MODEL Q2SA940 PNP
+ IS=10.000E-15
+ BF=133.76
+ VAF=100
+ IKF=1.5678
+ ISE=206.32E-15
+ NE=1.4075
+ BR=2.5222
+ VAR=100
+ IKR=6.7750
+ ISC=1.6902E-9
+ NC=1.8520
+ NK=.69967
+ RC=.37967
+ CJE=88.387E-12
+ MJE=.33333
+ CJC=133.60E-12
+ MJC=.33333
+ TF=11.593E-9
+ XTF=10
+ VTF=10
+ ITF=1
+ TR=10.000E-9
*$
* created using Parts release 7.1p on 06/28/96 at 11:20
* missing storage time & output admittance
.MODEL Q2SA949 PNP
+ IS=371.13E-15
+ BF=163.83
+ VAF=100
+ IKF=32.852E-3
+ ISE=2.4464E-12
+ NE=1.5062
+ BR=500
+ VAR=100
+ IKR=20
+ ISC=83.166E-9
+ NC=2.8195
+ NK=.49981
+ RC=32.569
+ CJE=6.4281E-12
+ MJE=.33333
+ CJC=9.7165E-12
+ MJC=.33333
+ TF=1.2863E-9
+ XTF=10
+ VTF=10
+ ITF=1
+ TR=10.000E-9
*$
.model Q2sa950  PNP(Is=89.93f Xti=3 Eg=1.11 Vaf=100 Bf=160.2 Ise=90.52f
+               Ne=1.492 Ikf=2.084 Nk=.809 Xtb=1.5 Var=100 Br=14.92 Isc=17.3p
+               Nc=1.617 Ikr=35.29m Rc=.11 Cjc=46.15p Mjc=.3333 Vjc=.75 Fc=.5
+               Cje=5p Mje=.3333 Vje=.75 Tr=10n Tf=1.242n Itf=1 Xtf=0 Vtf=10)
*$
.model Q2sa965  PNP(Is=4.956p Xti=3 Eg=1.11 Vaf=100 Bf=156.1 Ise=4.957p
+               Ne=1.434 Ikf=3.085 Nk=1.053 Xtb=1.5 Var=100 Br=1.02 Isc=2.06n
+               Nc=1.35 Ikr=3.312 Rc=.5442 Cjc=2p Mjc=.3333 Vjc=.75 Fc=.5
+               Cje=5p Mje=.3333 Vje=.75 Tr=10n Tf=1.324n Itf=1 Xtf=0 Vtf=10)
*$
.model Q2sa966  PNP(Is=10f Xti=3 Eg=1.11 Vaf=100 Bf=227.4 Ise=81.05f Ne=1.599
+               Ikf=4.369 Nk=1.014 Xtb=1.5 Var=100 Br=375.3T Isc=5.532p
+               Nc=1.477 Ikr=6.629 Rc=.497 Cjc=2p Mjc=.3333 Vjc=.75 Fc=.5
+               Cje=5p Mje=.3333 Vje=.75 Tr=10n Tf=1.325n Itf=1 Xtf=0 Vtf=10)
*$
.model Q2sb1000 PNP(Is=24.02f Xti=3 Eg=1.11 Vaf=100 Bf=139.5 Ise=1.133p
+               Ne=1.715 Ikf=.9492 Nk=.1923 Xtb=1.5 Var=100 Br=13.28 Isc=38.6f
+               Nc=1.978 Ikr=30.1m Rc=.2128 Cjc=92.77p Mjc=.3483 Vjc=.804 Fc=.5
+               Cje=5p Mje=.3333 Vje=.75 Tr=10n Tf=791.3p Itf=1 Xtf=0 Vtf=10)
*$
.model Q2sb1001 PNP(Is=6.395f Xti=3 Eg=1.11 Vaf=100 Bf=225.1 Ise=64.66p
+               Ne=2.857 Ikf=3.483 Nk=.6975 Xtb=1.5 Var=100 Br=28.42 Isc=10.74f
+               Nc=1.627 Ikr=11.67 Rc=.2003 Cjc=157.4p Mjc=.3325 Vjc=.3905
+               Fc=.5 Cje=5p Mje=.3333 Vje=.75 Tr=10n Tf=786.7p Itf=1 Xtf=0
+               Vtf=10)
*$
.model Q2sb1002 PNP(Is=133.9E-18 Xti=3 Eg=1.11 Vaf=100 Bf=241.8 Ise=24.04f
+               Ne=1.717 Ikf=.5387 Nk=.2525 Xtb=1.5 Var=100 Br=129.7 Isc=11.58f
+               Nc=7.225 Ikr=22.78m Rc=.2113 Cjc=151.7p Mjc=.3489 Vjc=.3905
+               Fc=.5 Cje=5p Mje=.3333 Vje=.75 Tr=10n Tf=793.4p Itf=1 Xtf=0
+               Vtf=10)
*$
.model Q2sb1025 PNP(Is=50.43p Xti=3 Eg=1.11 Vaf=100 Bf=207.5 Ise=50.43p
+               Ne=1.804 Ikf=2.527 Nk=.9904 Xtb=1.5 Var=100 Br=1.006 Isc=10.65n
+               Nc=1.71 Ikr=.1739 Rc=.7486 Cjc=62.31p Mjc=.5547 Vjc=1.389 Fc=.5
+               Cje=5p Mje=.3333 Vje=.75 Tr=10n Tf=793.7p Itf=1.901 Xtf=0
+               Vtf=10)
*$
.model Q2sb1026 PNP(Is=50.43p Xti=3 Eg=1.11 Vaf=100 Bf=207.5 Ise=50.43p
+               Ne=1.804 Ikf=2.527 Nk=.9904 Xtb=1.5 Var=100 Br=1.006 Isc=10.65n
+               Nc=1.71 Ikr=.1739 Rc=.7486 Cjc=62.31p Mjc=.5547 Vjc=1.389 Fc=.5
+               Cje=5p Mje=.3333 Vje=.75 Tr=10n Tf=793.7p Itf=1.901 Xtf=0
+               Vtf=10)
*$
.model Q2sb1027 PNP(Is=3.546n Xti=3 Eg=1.11 Vaf=100 Bf=143.7 Ise=163.1n
+               Ne=4.635 Ikf=5.033 Nk=1.394 Xtb=1.5 Var=100 Br=5.839 Isc=3.546n
+               Nc=1.772 Ikr=.4669 Rc=.4261 Cjc=88.09p Mjc=.4863 Vjc=.5462