*version 8.0 888539918
u 314
V? 6
R? 7
C? 4
? 11
L? 7
@libraries
@analysis
.TRAN 1 0 0 0
+0 0.001
+1 .1
+2 0
+3 .001
@targets
@attributes
@translators
a 0 u 13 0 0 0 hln 100 TANGO=PCB
a 0 u 13 0 0 0 hln 100 SCICARDS=PCB
a 0 u 13 0 0 0 hln 100 PROTEL=PCB
a 0 u 13 0 0 0 hln 100 PCBOARDS=PCB
a 0 u 13 0 0 0 hln 100 PCAD=PCB
a 0 u 13 0 0 0 hln 100 PADS=PCB
a 0 u 13 0 0 0 hln 100 ORCAD=PCB
a 0 u 13 0 0 0 hln 100 EDIF=PCB
a 0 u 13 0 0 0 hln 100 CADSTAR=PCB
a 0 u 13 0 0 0 hln 100 PSPICE=PSPICE
a 0 u 13 0 0 0 hln 100 XILINX=XILINX
@setup
unconnectedPins 0
connectViaLabel 0
connectViaLocalLabels 0
NoStim4ExtIFPortsWarnings 1
AutoGenStim4ExtIFPorts 1
@index
pageloc 1 0 6514 
@status
n 0 110:08:07:13:46:33;1283877993 e 
s 0 110:08:07:13:46:33;1283877993 e 
c 110:08:07:13:52:35;1283878355
*page 1 0 970 720 iA
@ports
port 25 GND_ANALOG 110 150 h
@parts
part 105 R 220 80 v
a 0 u 13 0 15 25 hln 100 VALUE=5
a 0 sp 0 0 0 10 hlb 100 PART=R
a 0 s 0:13 0 0 0 hln 100 PKGTYPE=RC05
a 0 s 0:13 0 0 0 hln 100 GATE=
a 0 a 0:13 0 0 0 hln 100 PKGREF=R6
a 0 ap 9 0 15 0 hln 100 REFDES=R6
part 103 R 260 80 v
a 0 u 13 0 15 25 hln 100 VALUE=5
a 0 sp 0 0 0 10 hlb 100 PART=R
a 0 s 0:13 0 0 0 hln 100 PKGTYPE=RC05
a 0 s 0:13 0 0 0 hln 100 GATE=
a 0 a 0:13 0 0 0 hln 100 PKGREF=R4
a 0 ap 9 0 15 0 hln 100 REFDES=R4
part 104 R 260 190 v
a 0 sp 0 0 0 10 hlb 100 PART=R
a 0 s 0:13 0 0 0 hln 100 PKGTYPE=RC05
a 0 s 0:13 0 0 0 hln 100 GATE=
a 0 a 0:13 0 0 0 hln 100 PKGREF=R5
a 0 ap 9 0 15 0 hln 100 REFDES=R5
a 0 u 13 0 15 25 hln 100 VALUE=5
part 210 L 310 150 h
a 0 u 13 0 15 25 hln 100 VALUE=0.02756
a 0 sp 0 0 0 10 hlb 100 PART=L
a 0 s 0:13 0 0 0 hln 100 PKGTYPE=L2012C
a 0 s 0:13 0 0 0 hln 100 GATE=
a 0 a 0:13 0 0 0 hln 100 PKGREF=L5
a 0 ap 9 0 15 0 hln 100 REFDES=L5
part 149 L 260 140 V
a 0 u 13 0 35 5 hln 100 VALUE=0.02756
a 0 sp 0 0 0 10 hlb 100 PART=L
a 0 s 0:13 0 0 0 hln 100 PKGTYPE=L2012C
a 0 s 0:13 0 0 0 hln 100 GATE=
a 0 a 0:13 0 0 0 hln 100 PKGREF=L2
a 0 ap 9 0 15 0 hln 100 REFDES=L2
part 148 L 220 140 V
a 0 u 13 0 15 50 hln 100 VALUE=0.02756
a 0 sp 0 0 0 10 hlb 100 PART=L
a 0 s 0:13 0 0 0 hln 100 PKGTYPE=L2012C
a 0 s 0:13 0 0 0 hln 100 GATE=
a 0 a 0:13 0 0 0 hln 100 PKGREF=L1
a 0 ap 9 0 35 30 hln 100 REFDES=L1
part 6 R 320 150 u
a 0 u 13 0 20 25 hln 100 VALUE=5
a 0 sp 0 0 0 10 hlb 100 PART=R
a 0 s 0:13 0 0 0 hln 100 PKGTYPE=RC05
a 0 s 0:13 0 0 0 hln 100 GATE=
a 0 a 0:13 0 0 0 hln 100 PKGREF=R2
a 0 ap 9 0 25 0 hln 100 REFDES=R2
part 206 L 260 180 d
a 0 u 13 0 35 0 hln 100 VALUE=0.02756
a 0 sp 0 0 0 10 hlb 100 PART=L
a 0 s 0:13 0 0 0 hln 100 PKGTYPE=L2012C
a 0 s 0:13 0 0 0 hln 100 GATE=
a 0 a 0:13 0 0 0 hln 100 PKGREF=L3
a 0 ap 9 0 15 0 hln 100 REFDES=L3
part 216 L 390 150 h
a 0 u 13 0 15 25 hln 100 VALUE=0.02756
a 0 sp 0 0 0 10 hlb 100 PART=L
a 0 s 0:13 0 0 0 hln 100 PKGTYPE=L2012C
a 0 s 0:13 0 0 0 hln 100 GATE=
a 0 a 0:13 0 0 0 hln 100 PKGREF=L6
a 0 ap 9 0 15 0 hln 100 REFDES=L6
part 7 R 480 150 u
a 0 u 13 0 15 25 hln 100 VALUE=5
a 0 sp 0 0 0 10 hlb 100 PART=R
a 0 s 0:13 0 0 0 hln 100 PKGTYPE=RC05
a 0 s 0:13 0 0 0 hln 100 GATE=
a 0 a 0:13 0 0 0 hln 100 PKGREF=R3
a 0 ap 9 0 25 0 hln 100 REFDES=R3
part 207 L 380 90 d
a 0 u 13 0 20 -5 hln 100 VALUE=0.02756
a 0 sp 0 0 0 10 hlb 100 PART=L
a 0 s 0:13 0 0 0 hln 100 PKGTYPE=L2012C
a 0 s 0:13 0 0 0 hln 100 GATE=
a 0 a 0:13 0 0 0 hln 100 PKGREF=L4
a 0 ap 9 0 45 0 hln 100 REFDES=L4
part 5 R 380 80 v
a 0 u 13 0 25 25 hln 100 VALUE=5
a 0 sp 0 0 0 10 hlb 100 PART=R
a 0 s 0:13 0 0 0 hln 100 PKGTYPE=RC05
a 0 s 0:13 0 0 0 hln 100 GATE=
a 0 a 0:13 0 0 0 hln 100 PKGREF=R1
a 0 ap 9 0 15 0 hln 100 REFDES=R1
part 55 VSIN 110 90 h
a 1 u 0 0 0 0 hcn 100 PHASE=0
a 1 u 0 0 0 0 hcn 100 VOFF=0
a 1 u 0 0 0 0 hcn 100 AC=0
a 1 u 0 0 0 0 hcn 100 DC=0
a 0 x 0:13 0 0 0 hln 100 PKGREF=V1
a 1 xp 9 0 20 10 hcn 100 REFDES=V1
a 1 u 0 0 0 0 hcn 100 FREQ=50
a 1 u 0 0 0 0 hcn 100 VAMPL=170
part 3 VSIN 50 150 v
a 1 u 0 0 0 0 hcn 100 FREQ=50
a 0 a 0:13 0 0 0 hln 100 PKGREF=V2
a 1 ap 9 0 20 10 hcn 100 REFDES=V2
a 1 u 0 0 0 0 hcn 100 VOFF=0
a 1 u 0 0 0 0 hcn 100 AC=0
a 1 u 0 0 0 0 hcn 100 DC=0
a 1 u 0 0 0 0 hcn 100 PHASE=120
a 1 u 0 0 0 0 hcn 100 VAMPL=170
part 54 VSIN 170 150 d
a 1 u 0 0 0 0 hcn 100 FREQ=50
a 1 u 0 0 0 0 hcn 100 VOFF=0
a 1 u 0 0 0 0 hcn 100 AC=0
a 1 u 0 0 0 0 hcn 100 DC=0
a 1 u 0 0 0 0 hcn 100 PHASE=240
a 0 x 0:13 0 0 0 hln 100 PKGREF=V3
a 1 xp 9 0 25 10 hcn 100 REFDES=V3
a 1 u 0 0 0 0 hcn 100 VAMPL=170
part 1 titleblk 970 720 h
a 1 s 13 0 350 10 hcn 100 PAGESIZE=A
a 1 s 13 0 180 60 hcn 100 PAGETITLE=
a 1 s 13 0 340 95 hrn 100 PAGECOUNT=1
a 1 s 13 0 300 95 hrn 100 PAGENO=1
part 302 iMarker 110 130 h
a 0 s 0 0 0 0 hln 100 PROBEVAR=
a 0 s 0 0 0 0 hln 100 PROBEVAR=
a 0 a 0 0 6 20 hlb 100 LABEL=7
part 311 nodeMarker 110 40 h
a 0 s 0 0 0 0 hln 100 PROBEVAR=
a 0 s 0 0 0 0 hln 100 PROBEVAR=
a 0 a 0 0 4 22 hlb 100 LABEL=8
part 312 nodeMarker 170 150 h
a 0 s 0 0 0 0 hln 100 PROBEVAR=
a 0 s 0 0 0 0 hln 100 PROBEVAR=
a 0 a 0 0 4 22 hlb 100 LABEL=9
part 313 nodeMarker 30 150 h
a 0 s 0 0 0 0 hln 100 PROBEVAR=
a 0 s 0 0 0 0 hln 100 PROBEVAR=
a 0 a 0 0 4 22 hlb 100 LABEL=10
@conn
w 30
a 0 up 0:33 0 0 0 hln 100 V=
s 110 130 110 150 69
a 0 up 0:33 0 112 140 hlt 100 V=
s 110 150 130 150 31
s 110 150 90 150 27
w 242
a 0 up 0:33 0 0 0 hln 100 V=
s 260 180 260 190 241
a 0 up 0:33 0 262 185 hlt 100 V=
w 261
a 0 up 0:33 0 0 0 hln 100 V=
s 320 150 310 150 259
a 0 up 0:33 0 315 149 hct 100 V=
w 257
a 0 up 0:33 0 0 0 hln 100 V=
s 390 150 380 150 255
s 380 150 370 150 309
a 0 up 0:33 0 375 149 hct 100 V=
w 307
a 0 up 0:33 0 0 0 hln 100 V=
s 450 150 440 150 305
a 0 up 0:33 0 445 149 hct 100 V=
w 310
a 0 up 0:33 0 0 0 hln 100 V=
s 380 90 380 80 308
a 0 up 0:33 0 382 85 hlt 100 V=
w 142
a 0 up 0:33 0 0 0 hln 100 V=
s 380 40 260 40 262
s 220 40 260 40 193
s 110 40 220 40 13
a 0 up 0:33 0 220 39 hct 100 V=
s 110 90 110 40 56
w 233
a 0 up 0:33 0 0 0 hln 100 V=
s 260 150 280 150 258
s 260 140 260 150 204
a 0 up 0:33 0 265 149 hct 100 V=
s 170 150 260 150 234
w 254
a 0 up 0:33 0 0 0 hln 100 V=
s 480 240 480 150 23
s 480 240 260 240 263
s 220 140 220 240 150
s 220 240 260 240 221
s 30 240 220 240 126
a 0 up 0:33 0 200 239 hct 100 V=
s 30 150 30 240 19
s 30 150 50 150 294
@junction
j 370 150
+ p 210 2
+ w 257
j 480 150
+ p 7 1
+ w 254
j 310 150
+ p 210 1
+ w 261
j 260 80
+ p 149 2
+ p 103 1
j 220 80
+ p 105 1
+ p 148 2
j 260 240
+ p 206 2
+ w 254
j 260 150
+ p 104 2
+ w 233
j 260 140
+ p 149 1
+ w 233
j 220 140
+ p 148 1
+ w 254
j 260 180
+ p 206 1
+ w 242
j 260 190
+ p 104 1
+ w 242
j 110 150
+ s 25
+ w 30
j 320 150
+ p 6 1
+ w 261
j 280 150
+ p 6 2
+ w 233
j 110 130
+ p 55 -
+ w 30
j 170 150
+ p 54 +
+ w 233
j 130 150
+ p 54 -
+ w 30
j 220 240
+ w 254
+ w 254
j 90 150
+ p 3 -
+ w 30
j 50 150
+ p 3 +
+ w 254
j 380 40
+ p 5 2
+ w 142
j 260 40
+ p 103 2
+ w 142
j 220 40
+ p 105 2
+ w 142
j 110 90
+ p 55 +
+ w 142
j 110 130
+ p 302 pin1
+ p 55 -
j 110 130
+ p 302 pin1
+ w 30
j 390 150
+ p 216 1
+ w 257
j 450 150
+ p 216 2
+ w 307
j 440 150
+ p 7 2
+ w 307
j 380 150
+ p 207 2
+ w 257
j 380 90
+ p 207 1
+ w 310
j 380 80
+ p 5 1
+ w 310
j 110 40
+ p 311 pin1
+ w 142
j 170 150
+ p 312 pin1
+ p 54 +
j 170 150
+ p 312 pin1
+ w 233
j 30 150
+ p 313 pin1
+ w 254
@attributes
a 0 s 0:13 0 0 0 hln 100 PAGETITLE=
a 0 s 0:13 0 0 0 hln 100 PAGENO=1
a 0 s 0:13 0 0 0 hln 100 PAGESIZE=A
a 0 s 0:13 0 0 0 hln 100 PAGECOUNT=1
@graphics
