Version 4
SHEET 1 880 680
WIRE -64 64 -240 64
WIRE 192 64 16 64
WIRE 576 64 192 64
WIRE 192 96 192 64
WIRE 576 144 576 64
WIRE -240 160 -240 64
WIRE 192 208 192 176
WIRE 256 208 192 208
WIRE 384 208 336 208
WIRE 528 208 448 208
WIRE 192 224 192 208
WIRE -240 304 -240 240
WIRE 144 304 -240 304
WIRE 192 304 192 288
WIRE 192 304 144 304
WIRE 576 304 576 208
WIRE 576 304 192 304
WIRE 144 336 144 304
FLAG 144 336 0
SYMBOL Misc\\SCR 560 144 R0
SYMATTR InstName U2
SYMATTR Value 2n1599
SYMATTR SpiceModel 2n1599
SYMBOL res 32 48 R90
WINDOW 0 0 56 VBottom 2
WINDOW 3 32 56 VTop 2
SYMATTR InstName R1
SYMATTR Value 100
SYMBOL voltage -240 144 R0
WINDOW 123 0 0 Left 2
WINDOW 39 0 0 Left 2
SYMATTR InstName V1
SYMATTR Value SINE(0 100 50)
SYMBOL res 352 192 R90
WINDOW 0 0 56 VBottom 2
WINDOW 3 32 56 VTop 2
SYMATTR InstName R2
SYMATTR Value 1k
SYMBOL cap 176 224 R0
SYMATTR InstName C1
SYMATTR Value 10”
SYMBOL res 176 80 R0
SYMATTR InstName R3
SYMATTR Value 1k
SYMBOL diode 384 224 R270
WINDOW 0 32 32 VTop 2
WINDOW 3 0 32 VBottom 2
SYMATTR InstName D1
TEXT -88 -120 Left 2 !.lib "E:\\Claudio\\Docencia personal\\LTSpice\\thyristr.lib"
TEXT -88 -64 Left 2 !.tran 0 100m 0 .01m
