Version 4
SHEET 1 880 820
WIRE 192 0 -64 0
WIRE 512 0 192 0
WIRE 96 32 32 32
WIRE 256 32 96 32
WIRE 384 32 336 32
WIRE 512 48 512 0
WIRE -64 64 -64 0
WIRE 192 112 192 0
WIRE 32 128 32 32
WIRE 96 144 96 32
WIRE 160 144 96 144
WIRE 384 160 384 32
WIRE 384 160 240 160
WIRE 512 160 512 128
WIRE 512 160 384 160
WIRE -64 176 -64 144
WIRE -64 176 -112 176
WIRE 160 176 112 176
WIRE -112 208 -112 176
WIRE -64 224 -64 176
WIRE 176 240 176 208
WIRE 192 240 192 208
WIRE 192 240 176 240
WIRE 32 272 32 192
WIRE 512 384 512 160
WIRE -64 432 -64 304
WIRE 192 432 192 240
WIRE 192 432 -64 432
WIRE 112 512 112 176
WIRE 512 512 512 464
WIRE 512 512 112 512
WIRE 512 544 512 512
WIRE 512 672 512 624
FLAG -112 208 0
FLAG 32 272 0
FLAG 512 672 0
SYMBOL Comparators\\LT1011 192 160 R0
SYMATTR InstName U1
SYMBOL voltage -64 48 R0
WINDOW 123 0 0 Left 0
WINDOW 39 0 0 Left 0
SYMATTR InstName V1
SYMATTR Value 15
SYMBOL voltage -64 208 R0
WINDOW 123 0 0 Left 0
WINDOW 39 0 0 Left 0
SYMATTR InstName V2
SYMATTR Value 15
SYMBOL res 496 32 R0
SYMATTR InstName R1
SYMATTR Value 10k
SYMBOL res 496 368 R0
SYMATTR InstName R2
SYMATTR Value 100k
SYMBOL res 496 528 R0
SYMATTR InstName R3
SYMATTR Value 100k
SYMBOL res 352 16 R90
WINDOW 0 0 56 VBottom 2
WINDOW 3 32 56 VTop 2
SYMATTR InstName R4
SYMATTR Value 10k
SYMBOL cap 16 128 R0
SYMATTR InstName C1
SYMATTR Value .001”
TEXT -64 -80 Left 2 !.tran 0 10m 0 .001m startup
