Version 4
SHEET 1 880 680
WIRE 336 320 160 320
WIRE 160 384 160 320
WIRE 336 384 336 320
WIRE 160 496 160 464
WIRE 336 496 336 448
WIRE 336 496 160 496
WIRE 160 512 160 496
FLAG 160 512 0
SYMBOL Misc\\xtal 320 384 R0
SYMATTR InstName C1
SYMATTR Value 9.95357648f
SYMATTR SpiceLine Rser=640 Lser=2.54647909 Cpar=2.48839412p
SYMBOL current 160 464 R180
WINDOW 0 24 80 Left 2
WINDOW 3 24 0 Left 2
WINDOW 123 24 -28 Left 2
WINDOW 39 0 0 Left 0
SYMATTR InstName I1
SYMATTR Value 0
SYMATTR Value2 AC 1
TEXT -104 56 Left 2 ;* 1Mhz frequency standard, AT cut, parallel resonant, Q=25000,\n\n*   calibration capacitance = 13pf\n\n.subckt QZP1MEG 1 2\n\n*\n\n  lqz           1               11              2.54647909\n\n  cs            11              12              9.95357648e-015\n\n  rqz           12              2               640\n\n  cp            1               2               2.48839412e-012\n\n.ends
TEXT 168 296 Left 2 !.ac lin 10000 .9994meg 1.002meg
