Version 4
SHEET 1 880 680
WIRE 480 0 176 0
WIRE 224 16 -64 16
WIRE 480 32 480 0
WIRE -64 64 -64 16
WIRE 48 80 16 80
WIRE 176 80 176 0
WIRE 176 80 128 80
WIRE 272 80 176 80
WIRE 368 80 352 80
WIRE 16 112 16 80
WIRE 176 112 176 80
WIRE 176 112 144 112
WIRE 480 112 480 96
WIRE 224 128 224 16
WIRE 144 160 144 112
WIRE 160 160 144 160
WIRE -64 176 -64 144
WIRE -64 176 -128 176
WIRE 368 176 368 80
WIRE 368 176 288 176
WIRE 160 192 144 192
WIRE -64 208 -64 176
WIRE 16 208 16 192
WIRE -128 224 -128 176
WIRE 144 240 144 192
WIRE 192 240 144 240
WIRE 80 288 48 288
WIRE 192 288 192 240
WIRE 192 288 160 288
WIRE 256 288 192 288
WIRE 368 288 368 176
WIRE 368 288 336 288
WIRE 48 304 48 288
WIRE -64 336 -64 288
WIRE 224 336 224 224
WIRE 224 336 -64 336
FLAG -128 224 0
FLAG 48 304 0
FLAG 16 208 0
FLAG 480 112 0
SYMBOL Propia\\uA741 208 176 R0
SYMATTR InstName U1
SYMBOL voltage -64 48 R0
WINDOW 123 0 0 Left 2
WINDOW 39 0 0 Left 2
SYMATTR InstName V1
SYMATTR Value 12
SYMBOL voltage -64 192 R0
WINDOW 123 0 0 Left 2
WINDOW 39 0 0 Left 2
SYMATTR InstName V2
SYMATTR Value 12
SYMBOL res 352 272 R90
WINDOW 0 0 56 VBottom 2
WINDOW 3 32 56 VTop 2
SYMATTR InstName R1
SYMATTR Value 10k
SYMBOL res 176 272 R90
WINDOW 0 0 56 VBottom 2
WINDOW 3 32 56 VTop 2
SYMATTR InstName R2
SYMATTR Value 10k
SYMBOL res 368 64 R90
WINDOW 0 0 56 VBottom 2
WINDOW 3 32 56 VTop 2
SYMATTR InstName R3
SYMATTR Value 10.5k
SYMBOL res 144 64 R90
WINDOW 0 0 56 VBottom 2
WINDOW 3 32 56 VTop 2
SYMATTR InstName R4
SYMATTR Value 10k
SYMBOL voltage 16 96 R0
WINDOW 3 24 96 Invisible 2
WINDOW 123 0 0 Left 2
WINDOW 39 0 0 Left 2
SYMATTR InstName V3
SYMATTR Value PULSE(-2 2 0 .01m .01m 20m 40m)
SYMBOL cap 464 32 R0
SYMATTR InstName C1
SYMATTR Value 1µ
TEXT 448 144 Left 2 !;op
TEXT 392 248 Left 2 !.tran 0 2 0 .01m
