Version 4
SHEET 1 880 680
WIRE 80 32 32 32
WIRE 208 32 144 32
WIRE 208 64 208 32
WIRE 32 144 32 32
WIRE 208 160 208 144
WIRE 256 160 208 160
WIRE 304 160 256 160
WIRE 208 192 208 160
WIRE 304 208 304 160
WIRE 32 304 32 224
WIRE 208 304 208 272
WIRE 208 304 32 304
WIRE 304 304 304 272
WIRE 304 304 208 304
WIRE 208 320 208 304
FLAG 208 320 0
FLAG 256 160 sal
SYMBOL voltage 32 128 R0
WINDOW 123 0 0 Left 0
WINDOW 39 0 0 Left 0
SYMATTR InstName V1
SYMATTR Value 5
SYMBOL res 224 160 R180
WINDOW 0 36 76 Left 2
WINDOW 3 36 40 Left 2
SYMATTR InstName R1
SYMATTR Value 10k
SYMBOL res 224 288 R180
WINDOW 0 36 76 Left 2
WINDOW 3 36 40 Left 2
SYMATTR InstName R2
SYMATTR Value 10k
SYMBOL cap 288 208 R0
SYMATTR InstName C1
SYMATTR Value 1f
SYMBOL diode 80 48 R270
WINDOW 0 32 32 VTop 2
WINDOW 3 0 32 VBottom 2
SYMATTR InstName D1
SYMATTR Value 1N4148
TEXT -24 -32 Left 2 !.noise V(sal) v1 dec 10000 1 100k
TEXT 432 -32 Left 2 ;.noise V(sal1) v1 dec 100 500 1500
