Version 4
SHEET 1 1028 680
WIRE 656 0 -80 0
WIRE -80 80 -80 0
WIRE 832 80 560 80
WIRE 656 128 656 0
WIRE 592 160 512 160
WIRE -80 176 -80 160
WIRE -80 176 -112 176
WIRE 832 176 832 80
WIRE 832 176 720 176
WIRE -112 192 -112 176
WIRE 560 192 560 80
WIRE 592 192 560 192
WIRE -80 224 -80 176
WIRE 512 336 512 160
WIRE -80 416 -80 304
WIRE 656 416 656 224
WIRE 656 416 -80 416
FLAG -112 192 0
FLAG 512 336 0
SYMBOL voltage -80 64 R0
WINDOW 123 0 0 Left 2
WINDOW 39 0 0 Left 2
SYMATTR InstName V1
SYMATTR Value 12
SYMBOL voltage -80 208 R0
WINDOW 123 0 0 Left 2
WINDOW 39 0 0 Left 2
SYMATTR InstName V2
SYMATTR Value 12
SYMBOL Propia\\uA741 640 176 R0
SYMATTR InstName U1
TEXT -152 -96 Left 2 !;tran 0 1 0 .01m
TEXT 240 -64 Left 2 !.op
