Version 4
SHEET 1 880 680
WIRE 240 -64 -176 -64
WIRE 384 -64 240 -64
WIRE 240 0 240 -64
WIRE -176 32 -176 -64
WIRE 384 64 384 -64
WIRE 240 112 240 80
WIRE 240 112 176 112
WIRE 288 112 240 112
WIRE 320 112 288 112
WIRE 176 128 176 112
WIRE 288 128 288 112
WIRE -176 160 -176 112
WIRE 384 176 384 160
WIRE 384 176 336 176
WIRE 448 176 384 176
WIRE 528 176 512 176
WIRE 528 192 528 176
WIRE 176 208 176 192
WIRE 288 208 288 192
WIRE 336 208 336 176
WIRE 336 208 288 208
WIRE 384 208 384 176
WIRE 288 224 288 208
WIRE 176 304 176 272
WIRE 288 304 288 288
WIRE 288 304 176 304
WIRE 384 304 384 288
WIRE 384 304 288 304
WIRE 528 304 528 272
WIRE 528 304 384 304
WIRE 288 320 288 304
FLAG -176 160 0
FLAG 288 320 0
FLAG 288 208 va
SYMBOL Misc\\xtal 160 128 R0
WINDOW 3 -84 57 Left 2
SYMATTR Value 0.0353p
SYMATTR InstName C1
SYMATTR SpiceLine Rser=50 Lser=0.056 Cpar=8.9p
SYMBOL npn 320 64 R0
SYMATTR InstName Q1
SYMATTR Value 2N2222
SYMBOL res 368 192 R0
SYMATTR InstName R1
SYMATTR Value 1k
SYMBOL res 512 176 R0
SYMATTR InstName R2
SYMATTR Value 100k
SYMBOL res 224 -16 R0
SYMATTR InstName R3
SYMATTR Value 220k
SYMBOL voltage -176 16 R0
WINDOW 123 0 0 Left 2
WINDOW 39 0 0 Left 2
SYMATTR InstName V1
SYMATTR Value 10
SYMBOL cap 512 160 R90
WINDOW 0 0 32 VBottom 2
WINDOW 3 32 32 VTop 2
SYMATTR InstName C2
SYMATTR Value 100p
SYMBOL cap 272 128 R0
SYMATTR InstName C3
SYMATTR Value 82p
SYMBOL cap 272 224 R0
SYMATTR InstName C4
SYMATTR Value 1n
SYMBOL cap 160 208 R0
WINDOW 0 -34 45 Left 2
SYMATTR InstName C5
SYMATTR Value 18p
TEXT 440 480 Left 2 !;op
TEXT 136 416 Left 2 !.tran 0 10m 9m .001u uic
TEXT 440 392 Left 2 !.ic v(va))=1
