Version 4
SHEET 1 880 680
WIRE 240 -64 -176 -64
WIRE 384 -64 240 -64
WIRE 384 -48 384 -64
WIRE 240 0 240 -64
WIRE -176 32 -176 -64
WIRE 384 64 384 32
WIRE 512 64 384 64
WIRE 544 64 512 64
WIRE 560 64 544 64
WIRE 656 64 624 64
WIRE 240 112 240 80
WIRE 240 112 176 112
WIRE 320 112 240 112
WIRE -176 160 -176 112
WIRE 240 160 240 112
WIRE 384 176 384 160
WIRE 448 176 384 176
WIRE 544 176 544 64
WIRE 576 176 544 176
WIRE 384 208 384 176
WIRE 448 208 448 176
WIRE 656 208 656 64
WIRE 512 224 512 64
WIRE 576 224 576 176
WIRE 240 304 240 240
WIRE 288 304 240 304
WIRE 384 304 384 288
WIRE 384 304 288 304
WIRE 448 304 448 272
WIRE 448 304 384 304
WIRE 512 304 512 288
WIRE 512 304 448 304
WIRE 656 304 656 288
WIRE 288 320 288 304
WIRE 512 320 512 304
WIRE 176 400 176 112
WIRE 512 400 512 384
WIRE 512 400 176 400
WIRE 576 400 576 288
WIRE 576 400 512 400
FLAG -176 160 0
FLAG 288 320 0
FLAG 656 304 0
FLAG 512 304 va
SYMBOL npn 320 64 R0
SYMATTR InstName Q1
SYMATTR Value 2N2222
SYMBOL res 368 192 R0
SYMATTR InstName R1
SYMATTR Value 290
SYMBOL res 224 -16 R0
SYMATTR InstName R3
SYMATTR Value 8k
SYMBOL voltage -176 16 R0
WINDOW 123 0 0 Left 2
WINDOW 39 0 0 Left 2
SYMATTR InstName V1
SYMATTR Value 12
SYMBOL res 368 -64 R0
SYMATTR InstName R2
SYMATTR Value 1k5
SYMBOL res 224 144 R0
SYMATTR InstName R4
SYMATTR Value 1k5
SYMBOL res 640 192 R0
SYMATTR InstName R5
SYMATTR Value 5k6
SYMBOL cap 624 48 R90
WINDOW 0 0 32 VBottom 2
WINDOW 3 32 32 VTop 2
SYMATTR InstName C3
SYMATTR Value 100n
SYMBOL Misc\\xtal 560 224 R0
SYMATTR InstName C4
SYMATTR Value 9.95f
SYMATTR SpiceLine Rser=640 Lser=2.55 Cpar=2.49p
SYMBOL cap 432 208 R0
SYMATTR InstName C5
SYMATTR Value 100n
SYMBOL cap 496 224 R0
SYMATTR InstName C1
SYMATTR Value 100p
SYMBOL cap 496 320 R0
SYMATTR InstName C2
SYMATTR Value 600p
TEXT 440 480 Left 2 !;op
TEXT 72 448 Left 2 !.tran 0 50m 49m .001u uic
TEXT -128 440 Left 2 !.ic v(va))=1
