Version 4
SHEET 1 900 788
WIRE 208 80 -320 80
WIRE 384 80 208 80
WIRE 208 96 208 80
WIRE -320 112 -320 80
WIRE 96 128 -112 128
WIRE 144 128 96 128
WIRE 432 128 320 128
WIRE -112 144 -112 128
WIRE 320 144 320 128
WIRE 320 144 272 144
WIRE 336 144 320 144
WIRE 144 160 16 160
WIRE 432 160 432 128
WIRE -320 256 -320 192
WIRE -320 256 -368 256
WIRE -144 256 -320 256
WIRE -112 256 -112 224
WIRE -112 256 -144 256
WIRE 16 256 16 160
WIRE 432 256 432 240
WIRE 432 256 16 256
WIRE -368 288 -368 256
WIRE 384 320 384 80
WIRE -320 336 -320 256
WIRE -144 336 -144 256
WIRE 16 336 16 256
WIRE 16 336 -144 336
WIRE 144 336 144 160
WIRE 352 336 144 336
WIRE 512 352 416 352
WIRE 560 352 512 352
WIRE 96 368 96 128
WIRE 352 368 96 368
WIRE 512 384 512 352
WIRE -320 432 -320 416
WIRE 208 432 208 192
WIRE 208 432 -320 432
WIRE 384 432 384 384
WIRE 384 432 208 432
WIRE 16 496 16 336
WIRE 512 496 512 464
WIRE 512 496 16 496
FLAG -368 288 0
FLAG 336 144 vc
SYMBOL voltage -320 96 R0
WINDOW 123 0 0 Left 2
WINDOW 39 0 0 Left 2
SYMATTR InstName V1
SYMATTR Value 15
SYMBOL voltage -320 320 R0
WINDOW 123 0 0 Left 2
WINDOW 39 0 0 Left 2
SYMATTR InstName V2
SYMATTR Value 15
SYMBOL voltage -112 128 R0
WINDOW 3 24 152 Left 2
WINDOW 123 24 124 Left 2
WINDOW 39 0 0 Left 2
SYMATTR Value 1m
SYMATTR Value2 AC 1
SYMATTR InstName V3
SYMBOL Propia\\op1 192 144 R0
SYMATTR InstName U1
SYMBOL Opamps\\LT1001 384 288 R0
SYMATTR InstName U2
SYMBOL res 416 144 R0
SYMATTR InstName R1
SYMATTR Value 10k
SYMBOL res 496 368 R0
SYMATTR InstName R2
SYMATTR Value 10k
TEXT 152 544 Left 2 !.ac dec 100 1 10meg
TEXT 632 440 Left 2 !;dc v3 -500u 500u 1u
