*version 7.1 2652237611
lib "d:\msim70\lib\xc4000\XC4000.slb" 56631439
lib "d:\msim70\lib\xblox\XBLOX.slb" 1026086760
u 1207
U? 14
? 1
HB? 2
@libraries
XC4000 [.slb]
XBLOX [.slb]
@analysis
.TRAN 1 0 0 0
+0 3u
+1 3u
.OP 0 
.XILINX 1
@targets
@attributes
a TITLE=
a IMPL=XILINX
a FAMILY=XC4000
@translators
a 0 u 13 0 0 0 hln 100 PCBOARDS=PCB
a 0 u 13 0 0 0 hln 100 PSPICE=PSPICE
a 0 u 13 0 0 0 hln 100 XILINX=XILINX
@setup
unconnectedPins 0
connectViaLabel 1
connectViaLocalLabels 0
NoStim4ExtIFPortsWarnings 1
AutoGenStim4ExtIFPorts 1
@index
pageloc 1 0 11585 
@status
n 0 96:07:18:17:45:03;840415503 e 
u XILINX 96:07:18:17:45:05;840415505 e 0 
s 0 96:07:18:17:46:46;840415606 e 
a 0 96:07:17:15:26:39;840320799 e 
c 96:07:18:17:53:31;840416011
*page 1 0 2020 1520 iB
@ports
port 161 IF_OUT 1200 280 h
a 1 xr 3 0 77 8 hcn 100 LABEL=OUT[15:0]
@parts
part 87 OSC4 810 620 h
a 0 s 11 0 60 20 hcn 200 PART=OSC4
a 0 s 0 0 0 0 hln 100 PKGTYPE=
a 0 a 0 0 0 0 hln 100 PKGREF=U1
a 0 ap 9 0 120 0 hrn 100 REFDES=U1
part 584 AND2 540 430 h
a 0 s 0 0 0 0 hln 100 PKGTYPE=
a 0 s 11 0 58 28 hlt 100 PART=AND2
a 0 a 0 0 0 0 hln 100 PKGREF=U2
a 0 ap 9 0 80 0 hrn 100 REFDES=U2
part 930 VCC 660 560 h
a 0 s 11 0 20 10 hcn 100 PART=VCC
a 0 s 0 0 0 0 hln 100 PKGTYPE=
a 0 a 0 0 0 0 hln 100 PKGREF=U3
a 0 ap 0 0 0 0 hln 100 REFDES=U3
part 929 VCC 1030 470 h
a 0 s 11 0 20 10 hcn 100 PART=VCC
a 0 s 0 0 0 0 hln 100 PKGTYPE=
a 0 a 0 0 0 0 hln 100 PKGREF=U4
a 0 ap 0 0 0 0 hln 100 REFDES=U4
part 928 VCC 860 470 h
a 0 s 11 0 20 10 hcn 100 PART=VCC
a 0 s 0 0 0 0 hln 100 PKGTYPE=
a 0 a 0 0 0 0 hln 100 PKGREF=U5
a 0 ap 0 0 0 0 hln 100 REFDES=U5
part 543 OBUF16 1050 280 h
a 0 s 11 0 35 20 hcn 200 PART=OBUF16
a 0 s 0 0 0 0 hln 100 PKGTYPE=
a 0 a 0 0 0 0 hln 100 PKGREF=U9
a 0 ap 9 0 70 0 hrn 100 REFDES=U9
part 719 ADSU16 660 440 h
a 0 s 11 0 70 20 hcn 200 PART=ADSU16
a 0 s 0 0 0 0 hln 100 PKGTYPE=
a 0 a 0 0 0 0 hln 100 PKGREF=U10
a 0 ap 9 0 140 0 hrn 100 REFDES=U10
part 716 COMP16 370 340 h
a 0 s 11 0 60 20 hcn 200 PART=COMP16
a 0 s 0 0 0 0 hln 100 PKGTYPE=
a 0 a 0 0 0 0 hln 100 PKGREF=U12
a 0 ap 9 0 120 0 hrn 100 REFDES=U12
part 715 COMP16 370 580 h
a 0 s 11 0 60 20 hcn 200 PART=COMP16
a 0 s 0 0 0 0 hln 100 PKGTYPE=
a 0 a 0 0 0 0 hln 100 PKGREF=U13
a 0 ap 9 0 120 0 hrn 100 REFDES=U13
part 931 GND 870 570 h
a 0 s 11 0 5 40 hln 100 PART=GND
a 0 s 0 0 0 0 hln 100 PKGTYPE=
a 0 a 0 0 0 0 hln 100 PKGREF=U6
a 0 ap 0 0 0 0 hln 100 REFDES=U6
part 717 FD16CE 870 500 h
a 0 s 11 0 60 20 hcn 200 PART=FD16CE
a 0 s 0 0 0 0 hln 100 PKGTYPE=
a 0 a 0 0 0 0 hln 100 PKGREF=U8
a 0 ap 9 0 120 0 hrn 100 REFDES=U8
part 932 GND 1040 570 h
a 0 s 11 0 5 40 hln 100 PART=GND
a 0 s 0 0 0 0 hln 100 PKGTYPE=
a 0 a 0 0 0 0 hln 100 PKGREF=U7
a 0 ap 0 0 0 0 hln 100 REFDES=U7
part 718 FD16CE 1040 500 h
a 0 s 11 0 60 20 hcn 200 PART=FD16CE
a 0 s 0 0 0 0 hln 100 PKGTYPE=
a 0 a 0 0 0 0 hln 100 PKGREF=U11
a 0 ap 9 0 120 0 hrn 100 REFDES=U11
block 1172 blocksym1172 240 480 h
a 0 s 0 0 0 0 hln 100 IMPL=XILINX
a 0 u 0 0 0 0 hln 100 FAMILY=XC4000
a 0 a 0 0 0 0 hln 100 PKGREF=HB1
a 0 ap 9 0 0 0 hln 100 REFDES=HB1
*symbol blocksym1172
d 
@type p
@attributes
a 0 sp 9 0 0 0 hln 100 REFDES=HB?
a 0 s 0 0 0 0 hln 100 PART=
@views
a 0 u 13 0 0 0 hln 100 XILINX=ZERO
@pins
p 2 68 23 hrb 100 ZERO[15:0] l 70 20 d
a 0 u 0 0 0 0 hln 100 float=n
a 0 u 0 0 0 0 hln 100 ERC=o
a 0 u 1 0 71 18 hln 100 pin=
@graphics 70 40 0 0 10
r 0 0 0 70 40
*end blocksym
part 1 titleblk 1520 970 h
a 1 x 13 0 180 60 hcn 200 PageTitle=Fibonacci Generator Using X-BLOX
a 1 s 13 0 350 10 hcn 100 PageSize=B
a 1 s 13 0 340 95 hrn 100 PageCount=1
a 1 s 13 0 300 95 hrn 100 PageNO=1
part 626 nodeMarker 1000 620 d
a 0 a 0 0 4 22 hlb 100 LABEL=2
part 677 nodeMarker 1200 280 h
a 0 a 0 0 4 22 hlb 100 LABEL=3
@conn
w 39
a 0 sr 0 0 622 425 hln 100 LABEL=BOTH_0
s 620 440 660 440 42
a 0 sr 3 0 616 436 hln 100 LABEL=BOTH_0
w 37
a 0 sr 0 0 489 366 hln 100 LABEL=A_IS_0
s 490 370 540 370 36
a 0 sr 3 0 489 366 hln 100 LABEL=A_IS_0
s 540 370 540 430 586
w 384
a 0 sr 0 0 490 626 hln 100 LABEL=CLOCK_IN
s 810 620 830 620 90
a 0 sr 3 0 900 616 hln 100 LABEL=CLOCK_IN
s 1000 620 830 620 101
s 830 540 830 620 92
s 870 540 830 540 96
s 1000 540 1000 620 103
s 1000 540 1040 540 105
w 940
s 1030 520 1040 520 941
s 1030 470 1030 520 939
w 936
s 860 520 870 520 937
s 860 470 860 520 935
w 33
a 0 sr 0 0 0 0 hln 100 LABEL=B_IS_0
s 540 610 540 450 34
a 0 sr 3 0 498 596 hln 100 LABEL=B_IS_0
s 490 610 540 610 927
b 47
a 0 sr 0 0 834 498 hln 100 LABEL=FIB[15:0]
s 800 500 870 500 50
a 0 sr 3 0 806 496 hln 100 LABEL=FIB[15:0]
b 560
a 0 sr 0 0 353 732 hln 100 LABEL=DELAY_2[15:0]
s 350 520 660 520 28
a 0 sr 3 0 353 732 hln 100 LABEL=DELAY_2[15:0]
s 350 580 370 580 571
s 350 580 350 520 1161
s 1180 500 1180 740 578
s 1160 500 1180 500 84
s 350 740 1180 740 714
s 350 740 350 580 913
b 11
a 0 sr 0 0 350 470 hln 100 LABEL=DELAY_1[15:0]
s 350 480 660 480 18
a 0 sr 3 0 356 470 hln 100 LABEL=DELAY_1[15:0]
s 350 340 370 340 792
s 1010 280 1010 500 69
s 1010 500 1040 500 482
s 990 500 1010 500 946
s 1050 280 1010 280 555
s 350 280 1010 280 786
s 350 340 350 280 934
s 350 480 350 340 790
b 351
a 0 sr 0 0 1549 386 hln 100 LABEL=OUT[15:0]
s 1120 280 1200 280 558
a 0 sr 3 0 1137 276 hln 100 LABEL=OUT[15:0]
b 1164
a 0 sr 0 0 337 502 hln 100 LABEL=ZERO[15:0]
s 330 500 310 500 1173
a 0 sr 3 0 333 502 hln 100 LABEL=ZERO[15:0]
s 330 640 370 640 1167
s 370 400 330 400 1163
s 330 400 330 500 1165
s 330 500 330 640 1206
@junction
j 830 620
+ w 384
+ w 384
j 1000 620
+ p 626 pin1
+ w 384
j 1200 280
+ S 161
OUT[15]
OUT[14]
OUT[13]
OUT[12]
OUT[11]
OUT[10]
OUT[9]
OUT[8]
OUT[7]
OUT[6]
OUT[5]
OUT[4]
OUT[3]
OUT[2]
OUT[1]
OUT[0]
+ b 351
OUT[15]
OUT[14]
OUT[13]
OUT[12]
OUT[11]
OUT[10]
OUT[9]
OUT[8]
OUT[7]
OUT[6]
OUT[5]
OUT[4]
OUT[3]
OUT[2]
OUT[1]
OUT[0]
j 1200 280
+ p 677 pin1
+ b 351
j 1200 280
+ s 161
+ p 677 pin1
j 810 620
+ p 87 F8M
+ w 384
j 620 440
+ p 584 O
+ w 39
j 540 430
+ p 584 I1
+ w 37
j 540 450
+ p 584 I0
+ w 33
j 660 560
+ p 719 ADD
+ p 930 VCC
j 660 440
+ p 719 CI
+ w 39
j 800 500
+ P 719 S[15:0]
S[15]
S[14]
S[13]
S[12]
S[11]
S[10]
S[9]
S[8]
S[7]
S[6]
S[5]
S[4]
S[3]
S[2]
S[1]
S[0]
+ b 47
FIB[15]
FIB[14]
FIB[13]
FIB[12]
FIB[11]
FIB[10]
FIB[9]
FIB[8]
FIB[7]
FIB[6]
FIB[5]
FIB[4]
FIB[3]
FIB[2]
FIB[1]
FIB[0]
j 490 370
+ p 716 EQ
+ w 37
j 1040 540
+ p 718 C
+ w 384
j 1040 520
+ p 718 CE
+ w 940
j 1030 470
+ p 929 VCC
+ w 940
j 860 470
+ p 928 VCC
+ w 936
j 870 540
+ p 717 C
+ w 384
j 870 520
+ p 717 CE
+ w 936
j 870 500
+ P 717 D[15:0]
D[15]
D[14]
D[13]
D[12]
D[11]
D[10]
D[9]
D[8]
D[7]
D[6]
D[5]
D[4]
D[3]
D[2]
D[1]
D[0]
+ b 47
FIB[15]
FIB[14]
FIB[13]
FIB[12]
FIB[11]
FIB[10]
FIB[9]
FIB[8]
FIB[7]
FIB[6]
FIB[5]
FIB[4]
FIB[3]
FIB[2]
FIB[1]
FIB[0]
j 1120 280
+ P 543 O[15:0]
O[15]
O[14]
O[13]
O[12]
O[11]
O[10]
O[9]
O[8]
O[7]
O[6]
O[5]
O[4]
O[3]
O[2]
O[1]
O[0]
+ b 351
OUT[15]
OUT[14]
OUT[13]
OUT[12]
OUT[11]
OUT[10]
OUT[9]
OUT[8]
OUT[7]
OUT[6]
OUT[5]
OUT[4]
OUT[3]
OUT[2]
OUT[1]
OUT[0]
j 490 610
+ p 715 EQ
+ w 33
j 660 480
+ P 719 A[15:0]
A[15]
A[14]
A[13]
A[12]
A[11]
A[10]
A[9]
A[8]
A[7]
A[6]
A[5]
A[4]
A[3]
A[2]
A[1]
A[0]
+ b 11
DELAY_1[15]
DELAY_1[14]
DELAY_1[13]
DELAY_1[12]
DELAY_1[11]
DELAY_1[10]
DELAY_1[9]
DELAY_1[8]
DELAY_1[7]
DELAY_1[6]
DELAY_1[5]
DELAY_1[4]
DELAY_1[3]
DELAY_1[2]
DELAY_1[1]
DELAY_1[0]
j 1010 500
+ b 11
DELAY_1[15]
DELAY_1[14]
DELAY_1[13]
DELAY_1[12]
DELAY_1[11]
DELAY_1[10]
DELAY_1[9]
DELAY_1[8]
DELAY_1[7]
DELAY_1[6]
DELAY_1[5]
DELAY_1[4]
DELAY_1[3]
DELAY_1[2]
DELAY_1[1]
DELAY_1[0]
+ b 11
DELAY_1[15]
DELAY_1[14]
DELAY_1[13]
DELAY_1[12]
DELAY_1[11]
DELAY_1[10]
DELAY_1[9]
DELAY_1[8]
DELAY_1[7]
DELAY_1[6]
DELAY_1[5]
DELAY_1[4]
DELAY_1[3]
DELAY_1[2]
DELAY_1[1]
DELAY_1[0]
j 1010 280
+ b 11
DELAY_1[15]
DELAY_1[14]
DELAY_1[13]
DELAY_1[12]
DELAY_1[11]
DELAY_1[10]
DELAY_1[9]
DELAY_1[8]
DELAY_1[7]
DELAY_1[6]
DELAY_1[5]
DELAY_1[4]
DELAY_1[3]
DELAY_1[2]
DELAY_1[1]
DELAY_1[0]
+ b 11
DELAY_1[15]
DELAY_1[14]
DELAY_1[13]
DELAY_1[12]
DELAY_1[11]
DELAY_1[10]
DELAY_1[9]
DELAY_1[8]
DELAY_1[7]
DELAY_1[6]
DELAY_1[5]
DELAY_1[4]
DELAY_1[3]
DELAY_1[2]
DELAY_1[1]
DELAY_1[0]
j 350 340
+ b 11
DELAY_1[15]
DELAY_1[14]
DELAY_1[13]
DELAY_1[12]
DELAY_1[11]
DELAY_1[10]
DELAY_1[9]
DELAY_1[8]
DELAY_1[7]
DELAY_1[6]
DELAY_1[5]
DELAY_1[4]
DELAY_1[3]
DELAY_1[2]
DELAY_1[1]
DELAY_1[0]
+ b 11
DELAY_1[15]
DELAY_1[14]
DELAY_1[13]
DELAY_1[12]
DELAY_1[11]
DELAY_1[10]
DELAY_1[9]
DELAY_1[8]
DELAY_1[7]
DELAY_1[6]
DELAY_1[5]
DELAY_1[4]
DELAY_1[3]
DELAY_1[2]
DELAY_1[1]
DELAY_1[0]
j 370 340
+ P 716 A[15:0]
A[15]
A[14]
A[13]
A[12]
A[11]
A[10]
A[9]
A[8]
A[7]
A[6]
A[5]
A[4]
A[3]
A[2]
A[1]
A[0]
+ b 11
DELAY_1[15]
DELAY_1[14]
DELAY_1[13]
DELAY_1[12]
DELAY_1[11]
DELAY_1[10]
DELAY_1[9]
DELAY_1[8]
DELAY_1[7]
DELAY_1[6]
DELAY_1[5]
DELAY_1[4]
DELAY_1[3]
DELAY_1[2]
DELAY_1[1]
DELAY_1[0]
j 1040 500
+ P 718 D[15:0]
D[15]
D[14]
D[13]
D[12]
D[11]
D[10]
D[9]
D[8]
D[7]
D[6]
D[5]
D[4]
D[3]
D[2]
D[1]
D[0]
+ b 11
DELAY_1[15]
DELAY_1[14]
DELAY_1[13]
DELAY_1[12]
DELAY_1[11]
DELAY_1[10]
DELAY_1[9]
DELAY_1[8]
DELAY_1[7]
DELAY_1[6]
DELAY_1[5]
DELAY_1[4]
DELAY_1[3]
DELAY_1[2]
DELAY_1[1]
DELAY_1[0]
j 990 500
+ P 717 Q[15:0]
Q[15]
Q[14]
Q[13]
Q[12]
Q[11]
Q[10]
Q[9]
Q[8]
Q[7]
Q[6]
Q[5]
Q[4]
Q[3]
Q[2]
Q[1]
Q[0]
+ b 11
DELAY_1[15]
DELAY_1[14]
DELAY_1[13]
DELAY_1[12]
DELAY_1[11]
DELAY_1[10]
DELAY_1[9]
DELAY_1[8]
DELAY_1[7]
DELAY_1[6]
DELAY_1[5]
DELAY_1[4]
DELAY_1[3]
DELAY_1[2]
DELAY_1[1]
DELAY_1[0]
j 1050 280
+ P 543 I[15:0]
I[15]
I[14]
I[13]
I[12]
I[11]
I[10]
I[9]
I[8]
I[7]
I[6]
I[5]
I[4]
I[3]
I[2]
I[1]
I[0]
+ b 11
DELAY_1[15]
DELAY_1[14]
DELAY_1[13]
DELAY_1[12]
DELAY_1[11]
DELAY_1[10]
DELAY_1[9]
DELAY_1[8]
DELAY_1[7]
DELAY_1[6]
DELAY_1[5]
DELAY_1[4]
DELAY_1[3]
DELAY_1[2]
DELAY_1[1]
DELAY_1[0]
j 660 520
+ P 719 B[15:0]
B[15]
B[14]
B[13]
B[12]
B[11]
B[10]
B[9]
B[8]
B[7]
B[6]
B[5]
B[4]
B[3]
B[2]
B[1]
B[0]
+ b 560
DELAY_2[15]
DELAY_2[14]
DELAY_2[13]
DELAY_2[12]
DELAY_2[11]
DELAY_2[10]
DELAY_2[9]
DELAY_2[8]
DELAY_2[7]
DELAY_2[6]
DELAY_2[5]
DELAY_2[4]
DELAY_2[3]
DELAY_2[2]
DELAY_2[1]
DELAY_2[0]
j 370 580
+ P 715 A[15:0]
A[15]
A[14]
A[13]
A[12]
A[11]
A[10]
A[9]
A[8]
A[7]
A[6]
A[5]
A[4]
A[3]
A[2]
A[1]
A[0]
+ b 560
DELAY_2[15]
DELAY_2[14]
DELAY_2[13]
DELAY_2[12]
DELAY_2[11]
DELAY_2[10]
DELAY_2[9]
DELAY_2[8]
DELAY_2[7]
DELAY_2[6]
DELAY_2[5]
DELAY_2[4]
DELAY_2[3]
DELAY_2[2]
DELAY_2[1]
DELAY_2[0]
j 350 580
+ b 560
DELAY_2[15]
DELAY_2[14]
DELAY_2[13]
DELAY_2[12]
DELAY_2[11]
DELAY_2[10]
DELAY_2[9]
DELAY_2[8]
DELAY_2[7]
DELAY_2[6]
DELAY_2[5]
DELAY_2[4]
DELAY_2[3]
DELAY_2[2]
DELAY_2[1]
DELAY_2[0]
+ b 560
DELAY_2[15]
DELAY_2[14]
DELAY_2[13]
DELAY_2[12]
DELAY_2[11]
DELAY_2[10]
DELAY_2[9]
DELAY_2[8]
DELAY_2[7]
DELAY_2[6]
DELAY_2[5]
DELAY_2[4]
DELAY_2[3]
DELAY_2[2]
DELAY_2[1]
DELAY_2[0]
j 1160 500
+ P 718 Q[15:0]
Q[15]
Q[14]
Q[13]
Q[12]
Q[11]
Q[10]
Q[9]
Q[8]
Q[7]
Q[6]
Q[5]
Q[4]
Q[3]
Q[2]
Q[1]
Q[0]
+ b 560
DELAY_2[15]
DELAY_2[14]
DELAY_2[13]
DELAY_2[12]
DELAY_2[11]
DELAY_2[10]
DELAY_2[9]
DELAY_2[8]
DELAY_2[7]
DELAY_2[6]
DELAY_2[5]
DELAY_2[4]
DELAY_2[3]
DELAY_2[2]
DELAY_2[1]
DELAY_2[0]
j 370 640
+ P 715 B[15:0]
B[15]
B[14]
B[13]
B[12]
B[11]
B[10]
B[9]
B[8]
B[7]
B[6]
B[5]
B[4]
B[3]
B[2]
B[1]
B[0]
+ b 1164
ZERO[15]
ZERO[14]
ZERO[13]
ZERO[12]
ZERO[11]
ZERO[10]
ZERO[9]
ZERO[8]
ZERO[7]
ZERO[6]
ZERO[5]
ZERO[4]
ZERO[3]
ZERO[2]
ZERO[1]
ZERO[0]
j 370 400
+ P 716 B[15:0]
B[15]
B[14]
B[13]
B[12]
B[11]
B[10]
B[9]
B[8]
B[7]
B[6]
B[5]
B[4]
B[3]
B[2]
B[1]
B[0]
+ b 1164
ZERO[15]
ZERO[14]
ZERO[13]
ZERO[12]
ZERO[11]
ZERO[10]
ZERO[9]
ZERO[8]
ZERO[7]
ZERO[6]
ZERO[5]
ZERO[4]
ZERO[3]
ZERO[2]
ZERO[1]
ZERO[0]
j 870 570
+ p 931 GROUND
+ p 717 CLR
j 1040 570
+ p 932 GROUND
+ p 718 CLR
j 330 500
+ b 1164
ZERO[15]
ZERO[14]
ZERO[13]
ZERO[12]
ZERO[11]
ZERO[10]
ZERO[9]
ZERO[8]
ZERO[7]
ZERO[6]
ZERO[5]
ZERO[4]
ZERO[3]
ZERO[2]
ZERO[1]
ZERO[0]
+ b 1164
ZERO[15]
ZERO[14]
ZERO[13]
ZERO[12]
ZERO[11]
ZERO[10]
ZERO[9]
ZERO[8]
ZERO[7]
ZERO[6]
ZERO[5]
ZERO[4]
ZERO[3]
ZERO[2]
ZERO[1]
ZERO[0]
j 310 500
+ P 1172 ZERO[15:0]
ZERO[15]
ZERO[14]
ZERO[13]
ZERO[12]
ZERO[11]
ZERO[10]
ZERO[9]
ZERO[8]
ZERO[7]
ZERO[6]
ZERO[5]
ZERO[4]
ZERO[3]
ZERO[2]
ZERO[1]
ZERO[0]
+ b 1164
ZERO[15]
ZERO[14]
ZERO[13]
ZERO[12]
ZERO[11]
ZERO[10]
ZERO[9]
ZERO[8]
ZERO[7]
ZERO[6]
ZERO[5]
ZERO[4]
ZERO[3]
ZERO[2]
ZERO[1]
ZERO[0]
@attributes
a 0 s 0 0 0 0 hln 100 PAGETITLE=
a 0 s 0 0 0 0 hln 100 PAGENO=1
a 0 s 0 0 0 0 hln 100 PAGESIZE=B
a 0 s 0 0 0 0 hln 100 PAGECOUNT=1
@text
s 5 490 200 hln 400 Fibonacci Sequence Generator
s 5 620 240 hln 400 Using XC4000
